<?xml version="1.0" encoding="UTF-8"?>

<!-- generated on 2022-03-11 13:27:23 by Eclipse SUMO netconvert Version v1_11_0+0960-9a7789007a4
<configuration xmlns:xsi="http://www.w3.org/2001/XMLSchema-instance" xsi:noNamespaceSchemaLocation="http://sumo.dlr.de/xsd/netconvertConfiguration.xsd">

    <input>
        <node-files value="prt_infra.nod.xml"/>
        <edge-files value="prt_infra.edg.xml"/>
        <connection-files value="prt_infra.con.xml"/>
        <type-files value="prt_infra.typ.xml"/>
    </input>

    <output>
        <output-file value="prt.net.xml"/>
    </output>

    <report>
        <aggregate-warnings value="5"/>
    </report>

</configuration>
-->

<net version="1.9" junctionCornerDetail="5" limitTurnSpeed="5.50" xmlns:xsi="http://www.w3.org/2001/XMLSchema-instance" xsi:noNamespaceSchemaLocation="http://sumo.dlr.de/xsd/net_file.xsd">

    <location netOffset="-549854.64,-5635637.82" convBoundary="0.00,0.00,1103.83,1833.58" origBoundary="9.611217,50.723113,9.826982,50.917305" projParameter="+proj=utm +zone=32 +ellps=WGS84 +datum=WGS84 +units=m +no_defs"/>

    <type id="edgeType_0" priority="-1" speed="13.89" allow="taxi evehicle" width="1.50"/>
    <type id="edgeType_1"/>
    <type id="edgeType_2"/>
    <type id="highway.bridleway" priority="1" numLanes="1" speed="2.78" allow="pedestrian" oneway="1" width="2.00"/>
    <type id="highway.bus_guideway" priority="1" numLanes="1" speed="27.78" allow="bus" oneway="1"/>
    <type id="highway.cycleway" priority="1" numLanes="1" speed="8.33" allow="bicycle" oneway="0" width="1.00"/>
    <type id="highway.footway" priority="1" numLanes="1" speed="2.78" allow="pedestrian" oneway="1" width="2.00"/>
    <type id="highway.ford" priority="1" numLanes="1" speed="2.78" allow="army" oneway="0"/>
    <type id="highway.living_street" priority="2" numLanes="1" speed="2.78" disallow="tram rail_urban rail rail_electric rail_fast ship" oneway="0"/>
    <type id="highway.motorway" priority="14" numLanes="2" speed="39.44" allow="private emergency authority army vip passenger hov taxi bus coach delivery truck trailer motorcycle evehicle custom1 custom2" oneway="1"/>
    <type id="highway.motorway_link" priority="9" numLanes="1" speed="22.22" allow="private emergency authority army vip passenger hov taxi bus coach delivery truck trailer motorcycle evehicle custom1 custom2" oneway="1"/>
    <type id="highway.path" priority="1" numLanes="1" speed="2.78" allow="pedestrian bicycle" oneway="0" width="2.00"/>
    <type id="highway.pedestrian" priority="1" numLanes="1" speed="2.78" allow="pedestrian" oneway="1" width="2.00"/>
    <type id="highway.primary" priority="12" numLanes="2" speed="27.78" disallow="tram rail_urban rail rail_electric rail_fast ship" oneway="0"/>
    <type id="highway.primary_link" priority="7" numLanes="1" speed="22.22" disallow="tram rail_urban rail rail_electric rail_fast ship" oneway="0"/>
    <type id="highway.prt" priority="-1" speed="13.89" allow="taxi evehicle" width="1.50"/>
    <type id="highway.raceway" priority="15" numLanes="2" speed="83.33" allow="vip" oneway="0"/>
    <type id="highway.residential" priority="3" numLanes="1" speed="13.89" disallow="tram rail_urban rail rail_electric rail_fast ship" oneway="0"/>
    <type id="highway.secondary" priority="11" numLanes="1" speed="27.78" disallow="tram rail_urban rail rail_electric rail_fast ship" oneway="0"/>
    <type id="highway.secondary_link" priority="6" numLanes="1" speed="22.22" disallow="tram rail_urban rail rail_electric rail_fast ship" oneway="0"/>
    <type id="highway.service" priority="1" numLanes="1" speed="5.56" allow="pedestrian delivery bicycle" oneway="0"/>
    <type id="highway.stairs" priority="1" numLanes="1" speed="1.39" allow="pedestrian" oneway="1" width="2.00"/>
    <type id="highway.step" priority="1" numLanes="1" speed="1.39" allow="pedestrian" oneway="1" width="2.00"/>
    <type id="highway.steps" priority="1" numLanes="1" speed="1.39" allow="pedestrian" oneway="1" width="2.00"/>
    <type id="highway.tertiary" priority="10" numLanes="1" speed="22.22" disallow="tram rail_urban rail rail_electric rail_fast ship" oneway="0"/>
    <type id="highway.tertiary_link" priority="5" numLanes="1" speed="22.22" disallow="tram rail_urban rail rail_electric rail_fast ship" oneway="0"/>
    <type id="highway.track" priority="1" numLanes="1" speed="5.56" allow="pedestrian motorcycle moped bicycle" oneway="0"/>
    <type id="highway.trunk" priority="13" numLanes="2" speed="27.78" disallow="pedestrian bicycle tram rail_urban rail rail_electric rail_fast ship" oneway="0"/>
    <type id="highway.trunk_link" priority="8" numLanes="1" speed="22.22" disallow="pedestrian bicycle tram rail_urban rail rail_electric rail_fast ship" oneway="0"/>
    <type id="highway.unclassified" priority="4" numLanes="1" speed="13.89" disallow="tram rail_urban rail rail_electric rail_fast ship" oneway="0"/>
    <type id="highway.unsurfaced" priority="1" numLanes="1" speed="8.33" disallow="tram rail_urban rail rail_electric rail_fast ship" oneway="0"/>
    <type id="railway.highspeed" priority="21" numLanes="1" speed="69.44" allow="rail_fast" oneway="1"/>
    <type id="railway.light_rail" priority="19" numLanes="1" speed="27.78" allow="rail_urban" oneway="1"/>
    <type id="railway.preserved" priority="16" numLanes="1" speed="27.78" allow="rail" oneway="1"/>
    <type id="railway.rail" priority="20" numLanes="1" speed="44.44" allow="rail" oneway="1"/>
    <type id="railway.subway" priority="18" numLanes="1" speed="27.78" allow="rail_urban" oneway="1"/>
    <type id="railway.tram" priority="17" numLanes="1" speed="13.89" allow="tram" oneway="1"/>

    <edge id=":prtJ0_0" function="internal">
        <lane id=":prtJ0_0_0" index="0" allow="taxi evehicle" speed="2.68" length="1.16" width="1.50" shape="68.15,97.94 68.12,97.63 68.19,97.37 68.37,97.18 68.66,97.04"/>
    </edge>
    <edge id=":prtJ1_0" function="internal">
        <lane id=":prtJ1_0_0" index="0" allow="taxi evehicle" speed="13.89" length="6.21" width="1.50" shape="24.28,151.47 23.27,157.60"/>
    </edge>
    <edge id=":prtJ1_1" function="internal">
        <lane id=":prtJ1_1_0" index="0" allow="taxi evehicle" speed="6.00" length="5.53" width="1.50" shape="19.18,154.92 20.55,154.43 21.61,153.64 22.36,152.56 22.80,151.18"/>
    </edge>
    <edge id=":prtJ10_0" function="internal">
        <lane id=":prtJ10_0_0" index="0" allow="taxi evehicle" speed="8.25" length="3.37" width="1.50" shape="302.46,191.08 302.21,190.12 301.96,189.47 301.55,188.91 300.88,188.19"/>
    </edge>
    <edge id=":prtJ10_1" function="internal">
        <lane id=":prtJ10_1_0" index="0" allow="taxi evehicle" speed="10.87" length="3.39" width="1.50" shape="301.95,187.14 302.66,187.85 303.19,188.30 303.80,188.63 304.72,189.01"/>
    </edge>
    <edge id=":prtJ102_0" function="internal">
        <lane id=":prtJ102_0_0" index="0" allow="taxi evehicle" speed="5.98" length="5.67" width="1.50" shape="560.26,84.35 560.92,85.68 561.13,87.01 560.89,88.34 560.21,89.66"/>
    </edge>
    <edge id=":prtJ11_0" function="internal">
        <lane id=":prtJ11_0_0" index="0" allow="taxi evehicle" speed="2.67" length="1.21" width="1.50" shape="122.53,80.39 122.86,80.34 123.12,80.41 123.33,80.59 123.47,80.89"/>
    </edge>
    <edge id=":prtJ126_0" function="internal">
        <lane id=":prtJ126_0_0" index="0" allow="taxi evehicle" speed="13.89" length="0.17" width="1.50" shape="2.97,184.45 3.00,184.28"/>
    </edge>
    <edge id=":prtJ127_0" function="internal">
        <lane id=":prtJ127_0_0" index="0" allow="taxi evehicle" speed="5.97" length="5.73" width="1.50" shape="6.56,160.87 6.97,159.42 7.71,158.28 8.79,157.46 10.21,156.95"/>
    </edge>
    <edge id=":prtJ129_0" function="internal">
        <lane id=":prtJ129_0_0" index="0" allow="taxi evehicle" speed="4.65" length="7.18" width="1.50" shape="3.88,200.49 1.78,201.31 0.46,201.11 -0.10,199.89 0.11,197.65"/>
    </edge>
    <edge id=":prtJ130_0" function="internal">
        <lane id=":prtJ130_0_0" index="0" allow="taxi evehicle" speed="2.68" length="1.53" width="1.50" shape="552.13,101.41 551.83,101.73 551.53,101.84 551.22,101.74 550.91,101.43"/>
    </edge>
    <edge id=":prtJ131_0" function="internal">
        <lane id=":prtJ131_0_0" index="0" allow="taxi evehicle" speed="2.67" length="1.26" width="1.50" shape="478.37,684.54 478.37,684.19 478.48,683.93 478.70,683.76 479.04,683.68"/>
    </edge>
    <edge id=":prtJ153_0" function="internal">
        <lane id=":prtJ153_0_0" index="0" allow="taxi evehicle" speed="13.89" length="9.58" width="1.50" shape="485.09,732.03 483.91,722.53"/>
    </edge>
    <edge id=":prtJ153_1" function="internal">
        <lane id=":prtJ153_1_0" index="0" allow="taxi evehicle" speed="5.78" length="7.63" width="1.50" shape="490.83,726.75 488.78,727.21 487.39,728.22 486.66,729.77 486.58,731.87"/>
    </edge>
    <edge id=":prtJ153_2" function="internal">
        <lane id=":prtJ153_2_0" index="0" allow="taxi evehicle" speed="6.49" length="9.07" width="1.50" shape="490.83,726.75 488.06,726.67 485.98,725.94 484.60,724.56 483.91,722.53"/>
    </edge>
    <edge id=":prtJ154_0" function="internal">
        <lane id=":prtJ154_0_0" index="0" allow="taxi evehicle" speed="2.67" length="1.24" width="1.50" shape="497.34,682.03 497.68,682.05 497.93,682.17 498.09,682.40 498.16,682.74"/>
    </edge>
    <edge id=":prtJ185_0" function="internal">
        <lane id=":prtJ185_0_0" index="0" allow="taxi evehicle" speed="13.89" length="3.10" width="1.50" shape="546.19,95.11 545.61,94.39 545.20,93.91 544.82,93.41 544.34,92.63"/>
    </edge>
    <edge id=":prtJ186_0" function="internal">
        <lane id=":prtJ186_0_0" index="0" allow="taxi evehicle" speed="5.85" length="7.61" width="1.50" shape="534.45,75.23 533.68,73.29 533.72,71.57 534.56,70.06 536.19,68.77"/>
    </edge>
    <edge id=":prtJ187_0" function="internal">
        <lane id=":prtJ187_0_0" index="0" allow="taxi evehicle" speed="13.89" length="2.20" width="1.50" shape="499.52,708.18 499.56,708.83 499.60,709.27 499.67,709.71 499.78,710.35"/>
    </edge>
    <edge id=":prtJ2_0" function="internal">
        <lane id=":prtJ2_0_0" index="0" allow="taxi evehicle" speed="13.89" length="0.72" width="1.50" shape="18.98,192.01 18.94,192.19 18.86,192.35 18.75,192.48 18.59,192.58"/>
    </edge>
    <edge id=":prtJ20_0" function="internal">
        <lane id=":prtJ20_0_0" index="0" allow="taxi evehicle" speed="6.01" length="6.78" width="1.50" shape="375.49,212.66 375.23,214.51 375.54,216.09 376.40,217.39 377.83,218.40"/>
    </edge>
    <edge id=":prtJ20_1" function="internal">
        <lane id=":prtJ20_1_0" index="0" allow="taxi evehicle" speed="13.89" length="7.90" width="1.50" shape="370.66,215.09 372.83,215.97 374.30,216.61 375.74,217.33 377.83,218.40"/>
    </edge>
    <edge id=":prtJ21_0" function="internal">
        <lane id=":prtJ21_0_0" index="0" allow="taxi evehicle" speed="13.89" length="0.71" width="1.50" shape="327.97,298.84 327.81,298.76 327.68,298.64 327.59,298.49 327.53,298.32"/>
    </edge>
    <edge id=":prtJ22_0" function="internal">
        <lane id=":prtJ22_0_0" index="0" allow="taxi evehicle" speed="13.89" length="0.79" width="1.50" shape="397.94,328.11 397.90,327.91 397.80,327.74 397.67,327.61 397.49,327.51"/>
    </edge>
    <edge id=":prtJ24_0" function="internal">
        <lane id=":prtJ24_0_0" index="0" allow="taxi evehicle" speed="8.74" length="4.54" width="1.50" shape="424.34,48.60 423.27,49.41 422.55,50.03 422.02,50.79 421.55,52.03"/>
    </edge>
    <edge id=":prtJ24_1" function="internal">
        <lane id=":prtJ24_1_0" index="0" allow="taxi evehicle" speed="4.71" length="1.86" width="1.50" shape="420.51,48.53 421.26,49.14 421.68,49.93"/>
    </edge>
    <edge id=":prtJ24_2" function="internal">
        <lane id=":prtJ24_2_0" index="0" allow="taxi evehicle" speed="4.71" length="2.12" width="1.50" shape="421.68,49.93 421.78,50.89 421.55,52.03"/>
    </edge>
    <edge id=":prtJ25_0" function="internal">
        <lane id=":prtJ25_0_0" index="0" allow="taxi evehicle" speed="13.89" length="3.27" width="1.50" shape="446.05,32.06 445.18,32.48 444.60,32.79 444.05,33.17 443.28,33.76"/>
    </edge>
    <edge id=":prtJ25_1" function="internal">
        <lane id=":prtJ25_1_0" index="0" allow="taxi evehicle" speed="13.51" length="3.25" width="1.50" shape="442.30,31.54 443.26,31.45 443.91,31.33 444.54,31.11 445.41,30.70"/>
    </edge>
    <edge id=":prtJ26_0" function="internal">
        <lane id=":prtJ26_0_0" index="0" allow="taxi evehicle" speed="13.89" length="0.67" width="1.50" shape="512.17,0.99 512.01,0.93 511.85,0.91 511.69,0.93 511.52,0.99"/>
    </edge>
    <edge id=":prtJ26_1" function="internal">
        <lane id=":prtJ26_1_0" index="0" allow="taxi evehicle" speed="4.43" length="2.01" width="1.50" shape="510.88,-0.37 511.37,-0.54 511.85,-0.60 512.34,-0.54 512.82,-0.36"/>
    </edge>
    <edge id=":prtJ27_0" function="internal">
        <lane id=":prtJ27_0_0" index="0" allow="taxi evehicle" speed="13.89" length="0.47" width="1.50" shape="532.12,10.76 532.05,10.64 531.99,10.57 531.91,10.51 531.79,10.45"/>
    </edge>
    <edge id=":prtJ27_1" function="internal">
        <lane id=":prtJ27_1_0" index="0" allow="taxi evehicle" speed="4.86" length="1.42" width="1.50" shape="532.44,9.09 532.81,9.28 533.05,9.46 533.23,9.68 533.44,10.05"/>
    </edge>
    <edge id=":prtJ28_0" function="internal">
        <lane id=":prtJ28_0_0" index="0" allow="taxi evehicle" speed="4.53" length="1.78" width="1.50" shape="551.98,44.12 552.16,44.54 552.25,44.97 552.25,45.40 552.16,45.85"/>
    </edge>
    <edge id=":prtJ28_1" function="internal">
        <lane id=":prtJ28_1_0" index="0" allow="taxi evehicle" speed="13.89" length="0.59" width="1.50" shape="550.72,45.41 550.75,45.26 550.75,45.12 550.72,44.98 550.66,44.84"/>
    </edge>
    <edge id=":prtJ29_0" function="internal">
        <lane id=":prtJ29_0_0" index="0" allow="taxi evehicle" speed="13.89" length="0.19" width="1.50" shape="401.91,113.81 401.86,113.99"/>
    </edge>
    <edge id=":prtJ3_0" function="internal">
        <lane id=":prtJ3_0_0" index="0" allow="taxi evehicle" speed="13.89" length="0.70" width="1.50" shape="26.34,142.32 26.19,142.41 26.07,142.53 25.99,142.68 25.93,142.85"/>
    </edge>
    <edge id=":prtJ3_1" function="internal">
        <lane id=":prtJ3_1_0" index="0" allow="taxi evehicle" speed="4.40" length="2.09" width="1.50" shape="24.46,142.56 24.62,142.05 24.87,141.61 25.23,141.25 25.68,140.97"/>
    </edge>
    <edge id=":prtJ30_0" function="internal">
        <lane id=":prtJ30_0_0" index="0" allow="taxi evehicle" speed="13.89" length="0.46" width="1.50" shape="591.82,328.49 591.94,328.56 592.02,328.61 592.07,328.69 592.14,328.80"/>
    </edge>
    <edge id=":prtJ31_0" function="internal">
        <lane id=":prtJ31_0_0" index="0" allow="taxi evehicle" speed="2.67" length="1.38" width="1.50" shape="711.44,549.82 711.57,550.19 711.55,550.49 711.36,550.72 711.01,550.89"/>
    </edge>
    <edge id=":prtJ32_0" function="internal">
        <lane id=":prtJ32_0_0" index="0" allow="taxi evehicle" speed="2.67" length="1.18" width="1.50" shape="644.28,572.63 643.99,572.77 643.81,572.97 643.74,573.23 643.79,573.54"/>
    </edge>
    <edge id=":prtJ33_0" function="internal">
        <lane id=":prtJ33_0_0" index="0" allow="taxi evehicle" speed="13.89" length="3.27" width="1.50" shape="649.38,593.22 649.71,594.14 650.00,594.76 650.19,595.39 650.23,596.34"/>
    </edge>
    <edge id=":prtJ34_0" function="internal">
        <lane id=":prtJ34_0_0" index="0" allow="taxi evehicle" speed="13.89" length="0.37" width="1.50" shape="645.19,720.54 645.19,720.64 645.20,720.72 645.22,720.79 645.27,720.89"/>
    </edge>
    <edge id=":prtJ35_0" function="internal">
        <lane id=":prtJ35_0_0" index="0" allow="taxi evehicle" speed="2.70" length="1.68" width="1.50" shape="683.34,799.64 683.49,800.12 683.43,800.45 683.15,800.65 682.66,800.72"/>
    </edge>
    <edge id=":prtJ36_0" function="internal">
        <lane id=":prtJ36_0_0" index="0" allow="taxi evehicle" speed="12.06" length="6.63" width="1.50" shape="560.54,802.52 558.78,801.62 557.55,800.96 556.26,800.61 554.34,800.63"/>
    </edge>
    <edge id=":prtJ36_1" function="internal">
        <lane id=":prtJ36_1_0" index="0" allow="taxi evehicle" speed="13.89" length="11.47" width="1.50" shape="565.80,800.48 562.60,800.43 560.06,800.38 557.53,800.41 554.34,800.63"/>
    </edge>
    <edge id=":prtJ36_2" function="internal">
        <lane id=":prtJ36_2_0" index="0" allow="taxi evehicle" speed="13.89" length="11.52" width="1.50" shape="554.20,799.14 557.38,798.73 559.87,798.19 562.34,797.51 565.45,796.69"/>
    </edge>
    <edge id=":prtJ36_3" function="internal">
        <lane id=":prtJ36_3_0" index="0" allow="taxi evehicle" speed="13.89" length="11.52" width="1.50" shape="554.20,799.14 565.70,798.44"/>
    </edge>
    <edge id=":prtJ37_0" function="internal">
        <lane id=":prtJ37_0_0" index="0" allow="taxi evehicle" speed="6.67" length="9.95" width="1.50" shape="499.27,805.65 496.55,805.51 494.52,804.54 493.16,802.73 492.49,800.10"/>
    </edge>
    <edge id=":prtJ37_1" function="internal">
        <lane id=":prtJ37_1_0" index="0" allow="taxi evehicle" speed="5.85" length="7.56" width="1.50" shape="493.98,799.94 494.49,801.94 495.52,803.31 497.07,804.05 499.13,804.15"/>
    </edge>
    <edge id=":prtJ38_0" function="internal">
        <lane id=":prtJ38_0_0" index="0" allow="taxi evehicle" speed="2.67" length="1.30" width="1.50" shape="582.63,797.53 582.99,797.56 583.24,797.70 583.38,797.95 583.42,798.31"/>
    </edge>
    <edge id=":prtJ39_0" function="internal">
        <lane id=":prtJ39_0_0" index="0" allow="taxi evehicle" speed="13.89" length="8.55" width="1.50" shape="582.99,807.96 582.83,810.48 582.57,812.20 582.12,813.89 581.36,816.31"/>
    </edge>
    <edge id=":prtJ39_1" function="internal">
        <lane id=":prtJ39_1_0" index="0" allow="taxi evehicle" speed="5.87" length="6.99" width="1.50" shape="579.93,815.86 580.23,814.00 579.90,812.43 578.94,811.14 577.35,810.13"/>
    </edge>
    <edge id=":prtJ4_0" function="internal">
        <lane id=":prtJ4_0_0" index="0" allow="taxi evehicle" speed="13.89" length="7.71" width="1.50" shape="77.48,117.88 75.31,118.59 73.84,119.15 72.42,119.81 70.36,120.81"/>
    </edge>
    <edge id=":prtJ4_1" function="internal">
        <lane id=":prtJ4_1_0" index="0" allow="taxi evehicle" speed="6.00" length="6.81" width="1.50" shape="69.71,119.47 71.16,118.47 72.05,117.19 72.38,115.62 72.16,113.76"/>
    </edge>
    <edge id=":prtJ4_2" function="internal">
        <lane id=":prtJ4_2_0" index="0" allow="taxi evehicle" speed="13.89" length="7.93" width="1.50" shape="69.71,119.47 71.82,118.43 73.28,117.76 74.79,117.18 77.03,116.45"/>
    </edge>
    <edge id=":prtJ40_0" function="internal">
        <lane id=":prtJ40_0_0" index="0" allow="taxi evehicle" speed="13.89" length="0.96" width="1.50" shape="582.02,792.69 582.26,792.60 582.43,792.46 582.54,792.26 582.59,792.01"/>
    </edge>
    <edge id=":prtJ41_0" function="internal">
        <lane id=":prtJ41_0_0" index="0" allow="taxi evehicle" speed="13.89" length="0.25" width="1.50" shape="586.64,729.91 586.66,729.65"/>
    </edge>
    <edge id=":prtJ42_0" function="internal">
        <lane id=":prtJ42_0_0" index="0" allow="taxi evehicle" speed="5.68" length="7.59" width="1.50" shape="552.17,910.61 551.84,912.68 552.27,914.32 553.47,915.52 555.43,916.27"/>
    </edge>
    <edge id=":prtJ42_1" function="internal">
        <lane id=":prtJ42_1_0" index="0" allow="taxi evehicle" speed="13.89" length="9.62" width="1.50" shape="547.78,919.31 550.73,910.16"/>
    </edge>
    <edge id=":prtJ43_0" function="internal">
        <lane id=":prtJ43_0_0" index="0" allow="taxi evehicle" speed="13.89" length="0.46" width="1.50" shape="611.33,929.06 611.46,929.09 611.56,929.10 611.65,929.08 611.78,929.03"/>
    </edge>
    <edge id=":prtJ44_0" function="internal">
        <lane id=":prtJ44_0_0" index="0" allow="taxi evehicle" speed="13.89" length="0.84" width="1.50" shape="658.96,909.93 659.17,909.88 659.37,909.88 659.56,909.94 659.74,910.07"/>
    </edge>
    <edge id=":prtJ45_0" function="internal">
        <lane id=":prtJ45_0_0" index="0" allow="taxi evehicle" speed="13.89" length="0.54" width="1.50" shape="678.59,926.80 678.71,926.90 678.81,926.96 678.92,926.98 679.08,926.99"/>
    </edge>
    <edge id=":prtJ46_0" function="internal">
        <lane id=":prtJ46_0_0" index="0" allow="taxi evehicle" speed="13.89" length="0.68" width="1.50" shape="775.27,928.06 775.44,928.08 775.60,928.14 775.74,928.23 775.86,928.35"/>
    </edge>
    <edge id=":prtJ47_0" function="internal">
        <lane id=":prtJ47_0_0" index="0" allow="taxi evehicle" speed="13.89" length="0.29" width="1.50" shape="802.05,962.55 802.10,962.62 802.13,962.67 802.15,962.73 802.17,962.81"/>
    </edge>
    <edge id=":prtJ48_0" function="internal">
        <lane id=":prtJ48_0_0" index="0" allow="taxi evehicle" speed="2.68" length="1.09" width="1.50" shape="821.09,1031.47 821.20,1031.74 821.38,1031.92 821.61,1032.02 821.91,1032.02"/>
    </edge>
    <edge id=":prtJ49_0" function="internal">
        <lane id=":prtJ49_0_0" index="0" allow="taxi evehicle" speed="2.68" length="1.12" width="1.50" shape="956.55,1014.44 956.86,1014.44 957.10,1014.54 957.27,1014.73 957.38,1015.01"/>
    </edge>
    <edge id=":prtJ5_0" function="internal">
        <lane id=":prtJ5_0_0" index="0" allow="taxi evehicle" speed="13.89" length="9.47" width="1.50" shape="134.20,99.93 125.15,102.74"/>
    </edge>
    <edge id=":prtJ5_1" function="internal">
        <lane id=":prtJ5_1_0" index="0" allow="taxi evehicle" speed="5.85" length="7.66" width="1.50" shape="127.84,95.34 128.73,97.24 130.01,98.40 131.69,98.82 133.76,98.50"/>
    </edge>
    <edge id=":prtJ5_2" function="internal">
        <lane id=":prtJ5_2_0" index="0" allow="taxi evehicle" speed="13.89" length="9.49" width="1.50" shape="124.70,101.31 133.76,98.50"/>
    </edge>
    <edge id=":prtJ50_0" function="internal">
        <lane id=":prtJ50_0_0" index="0" allow="taxi evehicle" speed="13.89" length="0.16" width="1.50" shape="990.89,1157.50 990.91,1157.54 990.91,1157.57 990.93,1157.60 990.95,1157.64"/>
    </edge>
    <edge id=":prtJ51_0" function="internal">
        <lane id=":prtJ51_0_0" index="0" allow="taxi evehicle" speed="13.89" length="3.30" width="1.50" shape="1034.17,1249.71 1034.49,1250.61 1034.55,1251.27 1034.50,1251.96 1034.52,1252.95"/>
    </edge>
    <edge id=":prtJ52_0" function="internal">
        <lane id=":prtJ52_0_0" index="0" allow="taxi evehicle" speed="13.89" length="0.10" width="1.50" shape="1050.90,1426.37 1050.88,1426.28"/>
    </edge>
    <edge id=":prtJ53_0" function="internal">
        <lane id=":prtJ53_0_0" index="0" allow="taxi evehicle" speed="13.89" length="3.13" width="1.50" shape="1089.41,1598.14 1089.57,1599.05 1089.60,1599.68 1089.58,1600.32 1089.60,1601.25"/>
    </edge>
    <edge id=":prtJ54_0" function="internal">
        <lane id=":prtJ54_0_0" index="0" allow="taxi evehicle" speed="13.89" length="0.29" width="1.50" shape="1092.01,1643.21 1092.02,1643.29 1092.03,1643.35 1092.05,1643.41 1092.08,1643.48"/>
    </edge>
    <edge id=":prtJ55_0" function="internal">
        <lane id=":prtJ55_0_0" index="0" allow="taxi evehicle" speed="5.85" length="7.59" width="1.50" shape="1102.82,1666.27 1103.44,1668.25 1103.27,1669.96 1102.33,1671.40 1100.61,1672.56"/>
    </edge>
    <edge id=":prtJ56_0" function="internal">
        <lane id=":prtJ56_0_0" index="0" allow="taxi evehicle" speed="13.89" length="0.30" width="1.50" shape="1092.73,1676.40 1092.46,1676.53"/>
    </edge>
    <edge id=":prtJ57_0" function="internal">
        <lane id=":prtJ57_0_0" index="0" allow="taxi evehicle" speed="5.86" length="7.42" width="1.50" shape="1072.51,1686.82 1070.61,1687.49 1068.92,1687.40 1067.46,1686.56 1066.22,1684.96"/>
    </edge>
    <edge id=":prtJ58_0" function="internal">
        <lane id=":prtJ58_0_0" index="0" allow="taxi evehicle" speed="2.69" length="1.00" width="1.50" shape="1034.07,1628.90 1033.91,1628.69 1033.71,1628.56 1033.48,1628.52 1033.22,1628.55"/>
    </edge>
    <edge id=":prtJ59_0" function="internal">
        <lane id=":prtJ59_0_0" index="0" allow="taxi evehicle" speed="13.89" length="0.33" width="1.50" shape="711.93,1717.33 711.84,1717.36 711.77,1717.39 711.72,1717.42 711.64,1717.49"/>
    </edge>
    <edge id=":prtJ6_0" function="internal">
        <lane id=":prtJ6_0_0" index="0" allow="taxi evehicle" speed="13.89" length="15.29" width="1.50" shape="166.75,91.42 163.02,92.12 159.23,92.81 155.46,93.59 151.79,94.56"/>
    </edge>
    <edge id=":prtJ6_1" function="internal">
        <lane id=":prtJ6_1_0" index="0" allow="taxi evehicle" speed="13.89" length="15.39" width="1.50" shape="151.35,93.12 165.83,87.89"/>
    </edge>
    <edge id=":prtJ6_2" function="internal">
        <lane id=":prtJ6_2_0" index="0" allow="taxi evehicle" speed="13.89" length="15.39" width="1.50" shape="151.35,93.12 166.31,89.50"/>
    </edge>
    <edge id=":prtJ60_0" function="internal">
        <lane id=":prtJ60_0_0" index="0" allow="taxi evehicle" speed="13.89" length="0.82" width="1.50" shape="574.23,1834.15 574.05,1834.27 573.86,1834.33 573.66,1834.33 573.46,1834.28"/>
    </edge>
    <edge id=":prtJ61_0" function="internal">
        <lane id=":prtJ61_0_0" index="0" allow="taxi evehicle" speed="2.67" length="1.24" width="1.50" shape="549.44,1824.54 549.14,1824.36 548.98,1824.14 548.94,1823.86 549.04,1823.53"/>
    </edge>
    <edge id=":prtJ62_0" function="internal">
        <lane id=":prtJ62_0_0" index="0" allow="taxi evehicle" speed="13.89" length="0.17" width="1.50" shape="615.85,1675.42 615.87,1675.37 615.88,1675.34 615.89,1675.31 615.90,1675.26"/>
    </edge>
    <edge id=":prtJ63_0" function="internal">
        <lane id=":prtJ63_0_0" index="0" allow="taxi evehicle" speed="13.89" length="0.89" width="1.50" shape="631.26,1597.41 631.28,1597.18 631.23,1596.97 631.12,1596.79 630.94,1596.64"/>
    </edge>
    <edge id=":prtJ64_0" function="internal">
        <lane id=":prtJ64_0_0" index="0" allow="taxi evehicle" speed="13.89" length="0.66" width="1.50" shape="430.47,1462.99 430.34,1462.89 430.24,1462.76 430.18,1462.61 430.14,1462.45"/>
    </edge>
    <edge id=":prtJ65_0" function="internal">
        <lane id=":prtJ65_0_0" index="0" allow="taxi evehicle" speed="13.89" length="0.33" width="1.50" shape="414.33,1310.28 414.33,1310.18 414.33,1310.11 414.34,1310.05 414.37,1309.96"/>
    </edge>
    <edge id=":prtJ67_0" function="internal">
        <lane id=":prtJ67_0_0" index="0" allow="taxi evehicle" speed="13.89" length="0.33" width="1.50" shape="592.05,673.29 592.06,673.19 592.06,673.12 592.04,673.06 592.01,672.97"/>
    </edge>
    <edge id=":prtJ68_0" function="internal">
        <lane id=":prtJ68_0_0" index="0" allow="taxi evehicle" speed="13.89" length="0.27" width="1.50" shape="575.97,627.14 575.95,627.06 575.92,627.01 575.89,626.97 575.84,626.90"/>
    </edge>
    <edge id=":prtJ69_0" function="internal">
        <lane id=":prtJ69_0_0" index="0" allow="taxi evehicle" speed="13.89" length="0.42" width="1.50" shape="491.43,527.00 491.35,526.91 491.28,526.85 491.21,526.81 491.09,526.77"/>
    </edge>
    <edge id=":prtJ7_0" function="internal">
        <lane id=":prtJ7_0_0" index="0" allow="taxi evehicle" speed="13.89" length="0.30" width="1.50" shape="181.05,82.30 181.14,82.27 181.20,82.25 181.26,82.25 181.35,82.25"/>
    </edge>
    <edge id=":prtJ70_0" function="internal">
        <lane id=":prtJ70_0_0" index="0" allow="taxi evehicle" speed="13.89" length="0.85" width="1.50" shape="420.22,503.36 420.02,503.27 419.87,503.13 419.77,502.96 419.72,502.74"/>
    </edge>
    <edge id=":prtJ8_0" function="internal">
        <lane id=":prtJ8_0_0" index="0" allow="taxi evehicle" speed="13.89" length="0.74" width="1.50" shape="200.46,85.06 200.31,84.93 200.15,84.86 199.97,84.83 199.78,84.84"/>
    </edge>
    <edge id=":prtJ8_1" function="internal">
        <lane id=":prtJ8_1_0" index="0" allow="taxi evehicle" speed="5.34" length="2.34" width="1.50" shape="199.46,83.15 200.15,83.20 200.62,83.30 201.04,83.54 201.54,84.01"/>
    </edge>
    <edge id=":prtJ9_0" function="internal">
        <lane id=":prtJ9_0_0" index="0" allow="taxi evehicle" speed="13.89" length="5.92" width="1.50" shape="395.77,35.61 397.48,35.25 398.67,35.09 399.87,35.01 401.63,34.89"/>
    </edge>
    <edge id=":prtJ9_1" function="internal">
        <lane id=":prtJ9_1_0" index="0" allow="taxi evehicle" speed="8.15" length="5.82" width="1.50" shape="395.77,35.61 397.41,35.40 398.55,35.65 399.63,36.28 401.10,37.22"/>
    </edge>
    <edge id=":sz_3_0" function="internal">
        <lane id=":sz_3_0_0" index="0" allow="taxi evehicle" speed="6.27" length="4.17" width="1.50" shape="547.36,61.76 547.16,62.81 547.19,63.82 547.45,64.80 547.95,65.75"/>
    </edge>
    <edge id=":sz_3_1" function="internal">
        <lane id=":sz_3_1_0" index="0" allow="taxi evehicle" speed="7.10" length="4.32" width="1.50" shape="543.39,64.60 544.46,63.93 545.11,63.32 545.53,62.53 545.93,61.32"/>
    </edge>
    <edge id=":sz_55_0" function="internal">
        <lane id=":sz_55_0_0" index="0" allow="taxi evehicle" speed="2.67" length="1.30" width="1.50" shape="502.53,724.98 502.54,725.34 502.43,725.61 502.20,725.79 501.85,725.87"/>
    </edge>

    <edge id="-prtE10" from="prtJ10" to="prtJ8" priority="-1" type="highway.prt">
        <lane id="-prtE10_0" index="0" allow="taxi evehicle" speed="13.89" length="143.94" width="1.50" shape="300.88,188.19 200.46,85.06"/>
    </edge>