<?xml version="1.0" encoding="UTF-8"?>

<!-- generated on 2022-02-25 15:41:34 by Eclipse SUMO netconvert Version v1_11_0+0960-9a7789007a4
<configuration xmlns:xsi="http://www.w3.org/2001/XMLSchema-instance" xsi:noNamespaceSchemaLocation="http://sumo.dlr.de/xsd/netconvertConfiguration.xsd">

    <input>
        <node-files value="diff.nod.xml"/>
        <edge-files value="diff.edg.xml"/>
        <type-files value="diff.typ.xml"/>
    </input>

    <output>
        <output-file value="prt_only_final.net.xml"/>
    </output>

    <report>
        <aggregate-warnings value="5"/>
    </report>

</configuration>
-->

<net version="1.9" junctionCornerDetail="5" limitTurnSpeed="5.50" xmlns:xsi="http://www.w3.org/2001/XMLSchema-instance" xsi:noNamespaceSchemaLocation="http://sumo.dlr.de/xsd/net_file.xsd">

    <location netOffset="-549844.73,-5635637.82" convBoundary="0.00,0.00,1128.53,1833.58" origBoundary="9.611217,50.723113,9.826982,50.917305" projParameter="+proj=utm +zone=32 +ellps=WGS84 +datum=WGS84 +units=m +no_defs"/>

    <type id="edgeType_0" priority="-1" speed="13.89" allow="taxi evehicle" width="1.50"/>
    <type id="edgeType_1"/>
    <type id="edgeType_2"/>
    <type id="highway.bridleway" priority="1" numLanes="1" speed="2.78" allow="pedestrian" oneway="1" width="2.00"/>
    <type id="highway.bus_guideway" priority="1" numLanes="1" speed="27.78" allow="bus" oneway="1"/>
    <type id="highway.cycleway" priority="1" numLanes="1" speed="8.33" allow="bicycle" oneway="0" width="1.00"/>
    <type id="highway.footway" priority="1" numLanes="1" speed="2.78" allow="pedestrian" oneway="1" width="2.00"/>
    <type id="highway.ford" priority="1" numLanes="1" speed="2.78" allow="army" oneway="0"/>
    <type id="highway.living_street" priority="2" numLanes="1" speed="2.78" disallow="tram rail_urban rail rail_electric rail_fast ship" oneway="0"/>
    <type id="highway.motorway" priority="14" numLanes="2" speed="39.44" allow="private emergency authority army vip passenger hov taxi bus coach delivery truck trailer motorcycle evehicle custom1 custom2" oneway="1"/>
    <type id="highway.motorway_link" priority="9" numLanes="1" speed="22.22" allow="private emergency authority army vip passenger hov taxi bus coach delivery truck trailer motorcycle evehicle custom1 custom2" oneway="1"/>
    <type id="highway.path" priority="1" numLanes="1" speed="2.78" allow="pedestrian bicycle" oneway="0" width="2.00"/>
    <type id="highway.pedestrian" priority="1" numLanes="1" speed="2.78" allow="pedestrian" oneway="1" width="2.00"/>
    <type id="highway.primary" priority="12" numLanes="2" speed="27.78" disallow="tram rail_urban rail rail_electric rail_fast ship" oneway="0"/>
    <type id="highway.primary_link" priority="7" numLanes="1" speed="22.22" disallow="tram rail_urban rail rail_electric rail_fast ship" oneway="0"/>
    <type id="highway.prt" priority="-1" speed="13.89" allow="taxi evehicle" width="1.50"/>
    <type id="highway.raceway" priority="15" numLanes="2" speed="83.33" allow="vip" oneway="0"/>
    <type id="highway.residential" priority="3" numLanes="1" speed="13.89" disallow="tram rail_urban rail rail_electric rail_fast ship" oneway="0"/>
    <type id="highway.secondary" priority="11" numLanes="1" speed="27.78" disallow="tram rail_urban rail rail_electric rail_fast ship" oneway="0"/>
    <type id="highway.secondary_link" priority="6" numLanes="1" speed="22.22" disallow="tram rail_urban rail rail_electric rail_fast ship" oneway="0"/>
    <type id="highway.service" priority="1" numLanes="1" speed="5.56" allow="pedestrian delivery bicycle" oneway="0"/>
    <type id="highway.stairs" priority="1" numLanes="1" speed="1.39" allow="pedestrian" oneway="1" width="2.00"/>
    <type id="highway.step" priority="1" numLanes="1" speed="1.39" allow="pedestrian" oneway="1" width="2.00"/>
    <type id="highway.steps" priority="1" numLanes="1" speed="1.39" allow="pedestrian" oneway="1" width="2.00"/>
    <type id="highway.tertiary" priority="10" numLanes="1" speed="22.22" disallow="tram rail_urban rail rail_electric rail_fast ship" oneway="0"/>
    <type id="highway.tertiary_link" priority="5" numLanes="1" speed="22.22" disallow="tram rail_urban rail rail_electric rail_fast ship" oneway="0"/>
    <type id="highway.track" priority="1" numLanes="1" speed="5.56" allow="pedestrian motorcycle moped bicycle" oneway="0"/>
    <type id="highway.trunk" priority="13" numLanes="2" speed="27.78" disallow="pedestrian bicycle tram rail_urban rail rail_electric rail_fast ship" oneway="0"/>
    <type id="highway.trunk_link" priority="8" numLanes="1" speed="22.22" disallow="pedestrian bicycle tram rail_urban rail rail_electric rail_fast ship" oneway="0"/>
    <type id="highway.unclassified" priority="4" numLanes="1" speed="13.89" disallow="tram rail_urban rail rail_electric rail_fast ship" oneway="0"/>
    <type id="highway.unsurfaced" priority="1" numLanes="1" speed="8.33" disallow="tram rail_urban rail rail_electric rail_fast ship" oneway="0"/>
    <type id="railway.highspeed" priority="21" numLanes="1" speed="69.44" allow="rail_fast" oneway="1"/>
    <type id="railway.light_rail" priority="19" numLanes="1" speed="27.78" allow="rail_urban" oneway="1"/>
    <type id="railway.preserved" priority="16" numLanes="1" speed="27.78" allow="rail" oneway="1"/>
    <type id="railway.rail" priority="20" numLanes="1" speed="44.44" allow="rail" oneway="1"/>
    <type id="railway.subway" priority="18" numLanes="1" speed="27.78" allow="rail_urban" oneway="1"/>
    <type id="railway.tram" priority="17" numLanes="1" speed="13.89" allow="tram" oneway="1"/>

    <edge id=":J0_0" function="internal">
        <lane id=":J0_0_0" index="0" allow="taxi evehicle" speed="2.68" length="1.16" width="1.50" shape="78.06,97.94 78.03,97.63 78.10,97.37 78.28,97.18 78.57,97.04"/>
    </edge>
    <edge id=":J1_0" function="internal">
        <lane id=":J1_0_0" index="0" allow="taxi evehicle" speed="13.89" length="6.21" width="1.50" shape="34.19,151.47 33.18,157.60"/>
    </edge>
    <edge id=":J1_1" function="internal">
        <lane id=":J1_1_0" index="0" allow="taxi evehicle" speed="2.50" length="2.07" width="1.50" shape="34.19,151.47 33.71,151.95 33.31,152.06 32.98,151.81 32.76,151.30"/>
    </edge>
    <edge id=":J1_4" function="internal">
        <lane id=":J1_4_0" index="0" allow="taxi evehicle" speed="2.50" length="0.12" width="1.50" shape="32.76,151.30 32.71,151.18"/>
    </edge>
    <edge id=":J1_2" function="internal">
        <lane id=":J1_2_0" index="0" allow="taxi evehicle" speed="6.00" length="5.53" width="1.50" shape="29.09,154.92 30.46,154.43 31.52,153.64 32.27,152.56 32.71,151.18"/>
    </edge>
    <edge id=":J1_3" function="internal">
        <lane id=":J1_3_0" index="0" allow="taxi evehicle" speed="4.73" length="4.05" width="1.50" shape="29.09,154.92 31.06,154.70 32.39,155.08 32.80,155.63"/>
    </edge>
    <edge id=":J1_5" function="internal">
        <lane id=":J1_5_0" index="0" allow="taxi evehicle" speed="4.73" length="2.07" width="1.50" shape="32.80,155.63 33.10,156.04 33.18,157.60"/>
    </edge>
    <edge id=":J10_0" function="internal">
        <lane id=":J10_0_0" index="0" allow="taxi evehicle" speed="8.25" length="3.37" width="1.50" shape="312.37,191.08 312.12,190.12 311.87,189.47 311.46,188.91 310.79,188.19"/>
    </edge>
    <edge id=":J10_1" function="internal">
        <lane id=":J10_1_0" index="0" allow="taxi evehicle" speed="3.82" length="2.94" width="1.50" shape="312.37,191.08 312.22,189.73 312.55,188.93 313.24,188.73"/>
    </edge>
    <edge id=":J10_4" function="internal">
        <lane id=":J10_4_0" index="0" allow="taxi evehicle" speed="3.82" length="1.44" width="1.50" shape="313.24,188.73 313.35,188.69 314.63,189.01"/>
    </edge>
    <edge id=":J10_2" function="internal">
        <lane id=":J10_2_0" index="0" allow="taxi evehicle" speed="10.87" length="3.39" width="1.50" shape="311.86,187.14 312.57,187.85 313.10,188.30 313.71,188.63 314.63,189.01"/>
    </edge>
    <edge id=":J10_3" function="internal">
        <lane id=":J10_3_0" index="0" allow="taxi evehicle" speed="2.50" length="1.97" width="1.50" shape="311.86,187.14 311.98,187.81 311.85,188.20 311.45,188.33 311.00,188.24"/>
    </edge>
    <edge id=":J10_5" function="internal">
        <lane id=":J10_5_0" index="0" allow="taxi evehicle" speed="2.50" length="0.22" width="1.50" shape="311.00,188.24 310.79,188.19"/>
    </edge>
    <edge id=":J11_0" function="internal">
        <lane id=":J11_0_0" index="0" allow="taxi evehicle" speed="2.67" length="1.21" width="1.50" shape="132.44,80.39 132.77,80.34 133.03,80.41 133.24,80.59 133.38,80.89"/>
    </edge>
    <edge id=":J2_0" function="internal">
        <lane id=":J2_0_0" index="0" allow="taxi evehicle" speed="13.89" length="0.72" width="1.50" shape="28.89,192.01 28.85,192.19 28.77,192.35 28.66,192.48 28.50,192.58"/>
    </edge>
    <edge id=":J20_0" function="internal">
        <lane id=":J20_0_0" index="0" allow="taxi evehicle" speed="6.01" length="6.78" width="1.50" shape="385.40,212.66 385.14,214.51 385.45,216.09 386.31,217.39 387.74,218.40"/>
    </edge>
    <edge id=":J20_1" function="internal">
        <lane id=":J20_1_0" index="0" allow="taxi evehicle" speed="13.89" length="7.90" width="1.50" shape="380.57,215.09 382.74,215.97 384.21,216.61 385.65,217.33 387.74,218.40"/>
    </edge>
    <edge id=":J21_0" function="internal">
        <lane id=":J21_0_0" index="0" allow="taxi evehicle" speed="13.89" length="0.71" width="1.50" shape="337.88,298.84 337.72,298.76 337.59,298.64 337.50,298.49 337.44,298.32"/>
    </edge>
    <edge id=":J22_0" function="internal">
        <lane id=":J22_0_0" index="0" allow="taxi evehicle" speed="13.89" length="0.79" width="1.50" shape="407.85,328.11 407.81,327.91 407.71,327.74 407.58,327.61 407.40,327.51"/>
    </edge>
    <edge id=":J24_0" function="internal">
        <lane id=":J24_0_0" index="0" allow="taxi evehicle" speed="8.74" length="4.54" width="1.50" shape="434.25,48.60 433.18,49.41 432.46,50.03 431.93,50.79 431.46,52.03"/>
    </edge>
    <edge id=":J24_1" function="internal">
        <lane id=":J24_1_0" index="0" allow="taxi evehicle" speed="4.71" length="1.86" width="1.50" shape="430.42,48.53 431.17,49.14 431.59,49.93"/>
    </edge>
    <edge id=":J24_2" function="internal">
        <lane id=":J24_2_0" index="0" allow="taxi evehicle" speed="4.71" length="2.12" width="1.50" shape="431.59,49.93 431.69,50.89 431.46,52.03"/>
    </edge>
    <edge id=":J25_0" function="internal">
        <lane id=":J25_0_0" index="0" allow="taxi evehicle" speed="13.89" length="3.27" width="1.50" shape="455.96,32.06 455.09,32.48 454.51,32.79 453.96,33.17 453.19,33.76"/>
    </edge>
    <edge id=":J25_1" function="internal">
        <lane id=":J25_1_0" index="0" allow="taxi evehicle" speed="2.50" length="1.94" width="1.50" shape="455.96,32.06 455.30,31.96 454.96,31.70 454.97,31.28 455.19,30.92"/>
    </edge>
    <edge id=":J25_4" function="internal">
        <lane id=":J25_4_0" index="0" allow="taxi evehicle" speed="2.50" length="0.25" width="1.50" shape="455.19,30.92 455.32,30.70"/>
    </edge>
    <edge id=":J25_2" function="internal">
        <lane id=":J25_2_0" index="0" allow="taxi evehicle" speed="13.51" length="3.25" width="1.50" shape="452.21,31.54 453.17,31.45 453.82,31.33 454.45,31.11 455.32,30.70"/>
    </edge>
    <edge id=":J25_3" function="internal">
        <lane id=":J25_3_0" index="0" allow="taxi evehicle" speed="3.70" length="3.36" width="1.50" shape="452.21,31.54 453.87,31.55 454.59,31.92 454.36,32.66 454.27,32.74"/>
    </edge>
    <edge id=":J25_5" function="internal">
        <lane id=":J25_5_0" index="0" allow="taxi evehicle" speed="3.70" length="1.49" width="1.50" shape="454.27,32.74 453.19,33.76"/>
    </edge>
    <edge id=":J26_0" function="internal">
        <lane id=":J26_0_0" index="0" allow="taxi evehicle" speed="13.89" length="0.67" width="1.50" shape="522.08,0.99 521.92,0.93 521.76,0.91 521.60,0.93 521.43,0.99"/>
    </edge>
    <edge id=":J26_1" function="internal">
        <lane id=":J26_1_0" index="0" allow="taxi evehicle" speed="4.43" length="2.01" width="1.50" shape="520.79,-0.37 521.28,-0.54 521.76,-0.60 522.25,-0.54 522.73,-0.36"/>
    </edge>
    <edge id=":J27_0" function="internal">
        <lane id=":J27_0_0" index="0" allow="taxi evehicle" speed="13.89" length="0.47" width="1.50" shape="542.03,10.76 541.96,10.64 541.90,10.57 541.82,10.51 541.70,10.45"/>
    </edge>
    <edge id=":J27_1" function="internal">
        <lane id=":J27_1_0" index="0" allow="taxi evehicle" speed="4.86" length="1.42" width="1.50" shape="542.35,9.09 542.72,9.28 542.96,9.46 543.14,9.68 543.35,10.05"/>
    </edge>
    <edge id=":J28_0" function="internal">
        <lane id=":J28_0_0" index="0" allow="taxi evehicle" speed="4.53" length="1.78" width="1.50" shape="561.89,44.12 562.07,44.54 562.16,44.97 562.16,45.40 562.07,45.85"/>
    </edge>
    <edge id=":J28_1" function="internal">
        <lane id=":J28_1_0" index="0" allow="taxi evehicle" speed="13.89" length="0.59" width="1.50" shape="560.63,45.41 560.66,45.26 560.66,45.12 560.63,44.98 560.57,44.84"/>
    </edge>
    <edge id=":J29_0" function="internal">
        <lane id=":J29_0_0" index="0" allow="taxi evehicle" speed="13.89" length="0.19" width="1.50" shape="411.82,113.81 411.77,113.99"/>
    </edge>
    <edge id=":J3_0" function="internal">
        <lane id=":J3_0_0" index="0" allow="taxi evehicle" speed="13.89" length="0.70" width="1.50" shape="36.25,142.32 36.10,142.41 35.98,142.53 35.90,142.68 35.84,142.85"/>
    </edge>
    <edge id=":J3_1" function="internal">
        <lane id=":J3_1_0" index="0" allow="taxi evehicle" speed="4.40" length="2.09" width="1.50" shape="34.37,142.56 34.53,142.05 34.78,141.61 35.14,141.25 35.59,140.97"/>
    </edge>
    <edge id=":J30_0" function="internal">
        <lane id=":J30_0_0" index="0" allow="taxi evehicle" speed="13.89" length="0.46" width="1.50" shape="601.73,328.49 601.85,328.56 601.93,328.61 601.98,328.69 602.05,328.80"/>
    </edge>
    <edge id=":J31_0" function="internal">
        <lane id=":J31_0_0" index="0" allow="taxi evehicle" speed="2.67" length="1.38" width="1.50" shape="721.35,549.82 721.48,550.19 721.46,550.49 721.27,550.72 720.92,550.89"/>
    </edge>
    <edge id=":J32_0" function="internal">
        <lane id=":J32_0_0" index="0" allow="taxi evehicle" speed="2.67" length="1.18" width="1.50" shape="654.19,572.63 653.90,572.77 653.72,572.97 653.65,573.23 653.70,573.54"/>
    </edge>
    <edge id=":J33_0" function="internal">
        <lane id=":J33_0_0" index="0" allow="taxi evehicle" speed="13.89" length="3.27" width="1.50" shape="659.29,593.22 659.62,594.14 659.91,594.76 660.10,595.39 660.14,596.34"/>
    </edge>
    <edge id=":J34_0" function="internal">
        <lane id=":J34_0_0" index="0" allow="taxi evehicle" speed="13.89" length="0.37" width="1.50" shape="655.10,720.54 655.10,720.64 655.11,720.72 655.13,720.79 655.18,720.89"/>
    </edge>
    <edge id=":J35_0" function="internal">
        <lane id=":J35_0_0" index="0" allow="taxi evehicle" speed="2.70" length="1.68" width="1.50" shape="693.25,799.64 693.40,800.12 693.34,800.45 693.06,800.65 692.57,800.72"/>
    </edge>
    <edge id=":J36_0" function="internal">
        <lane id=":J36_0_0" index="0" allow="taxi evehicle" speed="12.06" length="6.63" width="1.50" shape="570.45,802.52 568.69,801.62 567.46,800.96 566.17,800.61 564.25,800.63"/>
    </edge>
    <edge id=":J36_1" function="internal">
        <lane id=":J36_1_0" index="0" allow="taxi evehicle" speed="5.59" length="11.77" width="1.50" shape="570.45,802.52 568.26,801.02 568.34,799.55 570.71,798.11 575.36,796.69"/>
    </edge>
    <edge id=":J36_2" function="internal">
        <lane id=":J36_2_0" index="0" allow="taxi evehicle" speed="5.41" length="11.88" width="1.50" shape="570.45,802.52 567.97,800.99 568.00,799.80 570.55,798.95 575.61,798.44"/>
    </edge>
    <edge id=":J36_3" function="internal">
        <lane id=":J36_3_0" index="0" allow="taxi evehicle" speed="13.89" length="11.47" width="1.50" shape="575.71,800.48 572.51,800.43 569.97,800.38 567.44,800.41 564.25,800.63"/>
    </edge>
    <edge id=":J36_4" function="internal">
        <lane id=":J36_4_0" index="0" allow="taxi evehicle" speed="6.02" length="5.34" width="1.50" shape="575.71,800.48 570.37,800.26"/>
    </edge>
    <edge id=":J36_5" function="internal">
        <lane id=":J36_5_0" index="0" allow="taxi evehicle" speed="2.80" length="2.54" width="1.50" shape="575.71,800.48 574.92,800.01 574.64,799.51 574.87,798.99 575.26,798.70"/>
    </edge>
    <edge id=":J36_9" function="internal">
        <lane id=":J36_9_0" index="0" allow="taxi evehicle" speed="6.02" length="11.06" width="1.50" shape="570.37,800.26 569.73,800.23 567.68,799.52 569.55,798.34 575.36,796.69"/>
    </edge>
    <edge id=":J36_10" function="internal">
        <lane id=":J36_10_0" index="0" allow="taxi evehicle" speed="2.80" length="0.43" width="1.50" shape="575.26,798.70 575.61,798.44"/>
    </edge>
    <edge id=":J36_6" function="internal">
        <lane id=":J36_6_0" index="0" allow="taxi evehicle" speed="13.89" length="11.52" width="1.50" shape="564.11,799.14 567.29,798.73 569.78,798.19 572.25,797.51 575.36,796.69"/>
    </edge>
    <edge id=":J36_7" function="internal">
        <lane id=":J36_7_0" index="0" allow="taxi evehicle" speed="13.89" length="11.52" width="1.50" shape="564.11,799.14 575.61,798.44"/>
    </edge>
    <edge id=":J36_8" function="internal">
        <lane id=":J36_8_0" index="0" allow="taxi evehicle" speed="2.50" length="1.91" width="1.50" shape="564.11,799.14 564.71,799.46 564.93,799.81 564.78,800.20 564.47,800.45"/>
    </edge>
    <edge id=":J36_11" function="internal">
        <lane id=":J36_11_0" index="0" allow="taxi evehicle" speed="2.50" length="0.28" width="1.50" shape="564.47,800.45 564.25,800.63"/>
    </edge>
    <edge id=":J37_0" function="internal">
        <lane id=":J37_0_0" index="0" allow="taxi evehicle" speed="6.67" length="9.95" width="1.50" shape="509.18,805.65 506.46,805.51 504.43,804.54 503.07,802.73 502.40,800.10"/>
    </edge>
    <edge id=":J37_1" function="internal">
        <lane id=":J37_1_0" index="0" allow="taxi evehicle" speed="5.85" length="7.56" width="1.50" shape="503.89,799.94 504.40,801.94 505.43,803.31 506.98,804.05 509.04,804.15"/>
    </edge>
    <edge id=":J38_0" function="internal">
        <lane id=":J38_0_0" index="0" allow="taxi evehicle" speed="2.67" length="1.30" width="1.50" shape="592.54,797.53 592.90,797.56 593.15,797.70 593.29,797.95 593.33,798.31"/>
    </edge>
    <edge id=":J39_0" function="internal">
        <lane id=":J39_0_0" index="0" allow="taxi evehicle" speed="13.89" length="8.55" width="1.50" shape="592.90,807.96 592.74,810.48 592.48,812.20 592.03,813.89 591.27,816.31"/>
    </edge>
    <edge id=":J39_1" function="internal">
        <lane id=":J39_1_0" index="0" allow="taxi evehicle" speed="5.19" length="5.66" width="1.50" shape="592.90,807.96 592.47,809.83 591.38,810.82 589.65,810.92 589.14,810.75"/>
    </edge>
    <edge id=":J39_4" function="internal">
        <lane id=":J39_4_0" index="0" allow="taxi evehicle" speed="5.19" length="1.98" width="1.50" shape="589.14,810.75 587.26,810.13"/>
    </edge>
    <edge id=":J39_2" function="internal">
        <lane id=":J39_2_0" index="0" allow="taxi evehicle" speed="5.87" length="6.99" width="1.50" shape="589.84,815.86 590.14,814.00 589.81,812.43 588.85,811.14 587.26,810.13"/>
    </edge>
    <edge id=":J39_3" function="internal">
        <lane id=":J39_3_0" index="0" allow="taxi evehicle" speed="2.50" length="1.87" width="1.50" shape="589.84,815.86 590.36,815.44 590.78,815.37 591.08,815.66 591.18,816.00"/>
    </edge>
    <edge id=":J39_5" function="internal">
        <lane id=":J39_5_0" index="0" allow="taxi evehicle" speed="2.50" length="0.32" width="1.50" shape="591.18,816.00 591.27,816.31"/>
    </edge>
    <edge id=":J4_0" function="internal">
        <lane id=":J4_0_0" index="0" allow="taxi evehicle" speed="13.89" length="7.71" width="1.50" shape="87.39,117.88 85.22,118.59 83.75,119.15 82.33,119.81 80.27,120.81"/>
    </edge>
    <edge id=":J4_1" function="internal">
        <lane id=":J4_1_0" index="0" allow="taxi evehicle" speed="5.76" length="3.27" width="1.50" shape="87.39,117.88 85.57,118.09 84.24,117.54"/>
    </edge>
    <edge id=":J4_2" function="internal">
        <lane id=":J4_2_0" index="0" allow="taxi evehicle" speed="2.50" length="1.85" width="1.50" shape="87.39,117.88 86.74,117.69 86.45,117.39 86.51,116.98 86.72,116.71"/>
    </edge>
    <edge id=":J4_6" function="internal">
        <lane id=":J4_6_0" index="0" allow="taxi evehicle" speed="5.76" length="4.45" width="1.50" shape="84.24,117.54 84.08,117.48 82.91,116.03 82.07,113.76"/>
    </edge>
    <edge id=":J4_7" function="internal">
        <lane id=":J4_7_0" index="0" allow="taxi evehicle" speed="2.50" length="0.34" width="1.50" shape="86.72,116.71 86.94,116.45"/>
    </edge>
    <edge id=":J4_3" function="internal">
        <lane id=":J4_3_0" index="0" allow="taxi evehicle" speed="6.00" length="6.81" width="1.50" shape="79.62,119.47 81.07,118.47 81.96,117.19 82.29,115.62 82.07,113.76"/>
    </edge>
    <edge id=":J4_4" function="internal">
        <lane id=":J4_4_0" index="0" allow="taxi evehicle" speed="13.89" length="7.93" width="1.50" shape="79.62,119.47 81.73,118.43 83.19,117.76 84.70,117.18 86.94,116.45"/>
    </edge>
    <edge id=":J4_5" function="internal">
        <lane id=":J4_5_0" index="0" allow="taxi evehicle" speed="2.50" length="1.87" width="1.50" shape="79.62,119.47 80.29,119.56 80.62,119.81 80.62,120.23 80.44,120.53"/>
    </edge>
    <edge id=":J4_8" function="internal">
        <lane id=":J4_8_0" index="0" allow="taxi evehicle" speed="2.50" length="0.32" width="1.50" shape="80.44,120.53 80.27,120.81"/>
    </edge>
    <edge id=":J40_0" function="internal">
        <lane id=":J40_0_0" index="0" allow="taxi evehicle" speed="13.89" length="0.96" width="1.50" shape="591.93,792.69 592.17,792.60 592.34,792.46 592.45,792.26 592.50,792.01"/>
    </edge>
    <edge id=":J41_0" function="internal">
        <lane id=":J41_0_0" index="0" allow="taxi evehicle" speed="13.89" length="0.25" width="1.50" shape="596.55,729.91 596.57,729.65"/>
    </edge>
    <edge id=":J42_0" function="internal">
        <lane id=":J42_0_0" index="0" allow="taxi evehicle" speed="5.68" length="7.59" width="1.50" shape="562.08,910.61 561.75,912.68 562.18,914.32 563.38,915.52 565.34,916.27"/>
    </edge>
    <edge id=":J42_1" function="internal">
        <lane id=":J42_1_0" index="0" allow="taxi evehicle" speed="2.50" length="1.89" width="1.50" shape="562.08,910.61 561.55,911.03 561.14,911.10 560.84,910.81 560.73,910.45"/>
    </edge>
    <edge id=":J42_4" function="internal">
        <lane id=":J42_4_0" index="0" allow="taxi evehicle" speed="2.50" length="0.30" width="1.50" shape="560.73,910.45 560.64,910.16"/>
    </edge>
    <edge id=":J42_2" function="internal">
        <lane id=":J42_2_0" index="0" allow="taxi evehicle" speed="13.89" length="9.62" width="1.50" shape="557.69,919.31 560.64,910.16"/>
    </edge>
    <edge id=":J42_3" function="internal">
        <lane id=":J42_3_0" index="0" allow="taxi evehicle" speed="6.62" length="6.65" width="1.50" shape="557.69,919.31 558.74,917.46 560.36,916.33 562.56,915.94 562.86,915.97"/>
    </edge>
    <edge id=":J42_5" function="internal">
        <lane id=":J42_5_0" index="0" allow="taxi evehicle" speed="6.62" length="2.50" width="1.50" shape="562.86,915.97 565.34,916.27"/>
    </edge>
    <edge id=":J43_0" function="internal">
        <lane id=":J43_0_0" index="0" allow="taxi evehicle" speed="13.89" length="0.46" width="1.50" shape="621.24,929.06 621.37,929.09 621.47,929.10 621.56,929.08 621.69,929.03"/>
    </edge>
    <edge id=":J44_0" function="internal">
        <lane id=":J44_0_0" index="0" allow="taxi evehicle" speed="13.89" length="0.84" width="1.50" shape="668.87,909.93 669.08,909.88 669.28,909.88 669.47,909.94 669.65,910.07"/>
    </edge>
    <edge id=":J45_0" function="internal">
        <lane id=":J45_0_0" index="0" allow="taxi evehicle" speed="13.89" length="0.54" width="1.50" shape="688.50,926.80 688.62,926.90 688.72,926.96 688.83,926.98 688.99,926.99"/>
    </edge>
    <edge id=":J46_0" function="internal">
        <lane id=":J46_0_0" index="0" allow="taxi evehicle" speed="13.89" length="0.68" width="1.50" shape="785.18,928.06 785.35,928.08 785.51,928.14 785.65,928.23 785.77,928.35"/>
    </edge>
    <edge id=":J47_0" function="internal">
        <lane id=":J47_0_0" index="0" allow="taxi evehicle" speed="13.89" length="0.29" width="1.50" shape="811.96,962.55 812.01,962.62 812.04,962.67 812.06,962.73 812.08,962.81"/>
    </edge>
    <edge id=":J48_0" function="internal">
        <lane id=":J48_0_0" index="0" allow="taxi evehicle" speed="2.68" length="1.09" width="1.50" shape="831.00,1031.47 831.11,1031.74 831.29,1031.92 831.52,1032.02 831.82,1032.02"/>
    </edge>
    <edge id=":J49_0" function="internal">
        <lane id=":J49_0_0" index="0" allow="taxi evehicle" speed="2.68" length="1.12" width="1.50" shape="966.46,1014.44 966.77,1014.44 967.01,1014.54 967.18,1014.73 967.29,1015.01"/>
    </edge>
    <edge id=":J5_0" function="internal">
        <lane id=":J5_0_0" index="0" allow="taxi evehicle" speed="13.89" length="9.47" width="1.50" shape="144.11,99.93 135.06,102.74"/>
    </edge>
    <edge id=":J5_1" function="internal">
        <lane id=":J5_1_0" index="0" allow="taxi evehicle" speed="2.50" length="1.86" width="1.50" shape="144.11,99.93 143.47,99.74 143.18,99.43 143.25,99.02 143.47,98.75"/>
    </edge>
    <edge id=":J5_6" function="internal">
        <lane id=":J5_6_0" index="0" allow="taxi evehicle" speed="2.50" length="0.33" width="1.50" shape="143.47,98.75 143.67,98.50"/>
    </edge>
    <edge id=":J5_2" function="internal">
        <lane id=":J5_2_0" index="0" allow="taxi evehicle" speed="5.85" length="7.66" width="1.50" shape="137.75,95.34 138.64,97.24 139.92,98.40 141.60,98.82 143.67,98.50"/>
    </edge>
    <edge id=":J5_3" function="internal">
        <lane id=":J5_3_0" index="0" allow="taxi evehicle" speed="6.31" length="8.91" width="1.50" shape="137.75,95.34 138.26,98.04 137.99,100.17 136.92,101.74 135.06,102.74"/>
    </edge>
    <edge id=":J5_4" function="internal">
        <lane id=":J5_4_0" index="0" allow="taxi evehicle" speed="13.89" length="9.49" width="1.50" shape="134.61,101.31 143.67,98.50"/>
    </edge>
    <edge id=":J5_5" function="internal">
        <lane id=":J5_5_0" index="0" allow="taxi evehicle" speed="2.50" length="1.88" width="1.50" shape="134.61,101.31 135.26,101.50 135.55,101.80 135.49,102.21 135.26,102.50"/>
    </edge>
    <edge id=":J5_7" function="internal">
        <lane id=":J5_7_0" index="0" allow="taxi evehicle" speed="2.50" length="0.31" width="1.50" shape="135.26,102.50 135.06,102.74"/>
    </edge>
    <edge id=":J50_0" function="internal">
        <lane id=":J50_0_0" index="0" allow="taxi evehicle" speed="13.89" length="0.16" width="1.50" shape="1000.80,1157.50 1000.82,1157.54 1000.82,1157.57 1000.84,1157.60 1000.86,1157.64"/>
    </edge>
    <edge id=":J51_0" function="internal">
        <lane id=":J51_0_0" index="0" allow="taxi evehicle" speed="13.89" length="3.30" width="1.50" shape="1044.08,1249.71 1044.40,1250.61 1044.46,1251.27 1044.41,1251.96 1044.43,1252.95"/>
    </edge>
    <edge id=":J52_0" function="internal">
        <lane id=":J52_0_0" index="0" allow="taxi evehicle" speed="13.89" length="0.10" width="1.50" shape="1060.81,1426.37 1060.79,1426.28"/>
    </edge>
    <edge id=":J53_0" function="internal">
        <lane id=":J53_0_0" index="0" allow="taxi evehicle" speed="13.89" length="3.13" width="1.50" shape="1099.32,1598.14 1099.48,1599.05 1099.51,1599.68 1099.49,1600.32 1099.51,1601.25"/>
    </edge>
    <edge id=":J54_0" function="internal">
        <lane id=":J54_0_0" index="0" allow="taxi evehicle" speed="13.89" length="0.29" width="1.50" shape="1101.92,1643.21 1101.93,1643.29 1101.94,1643.35 1101.96,1643.41 1101.99,1643.48"/>
    </edge>
    <edge id=":J55_0" function="internal">
        <lane id=":J55_0_0" index="0" allow="taxi evehicle" speed="5.85" length="7.59" width="1.50" shape="1112.73,1666.27 1113.35,1668.25 1113.18,1669.96 1112.24,1671.40 1110.52,1672.56"/>
    </edge>
    <edge id=":J56_0" function="internal">
        <lane id=":J56_0_0" index="0" allow="taxi evehicle" speed="13.89" length="0.30" width="1.50" shape="1102.64,1676.40 1102.37,1676.53"/>
    </edge>
    <edge id=":J57_0" function="internal">
        <lane id=":J57_0_0" index="0" allow="taxi evehicle" speed="5.86" length="7.42" width="1.50" shape="1082.42,1686.82 1080.52,1687.49 1078.83,1687.40 1077.37,1686.56 1076.13,1684.96"/>
    </edge>
    <edge id=":J58_0" function="internal">
        <lane id=":J58_0_0" index="0" allow="taxi evehicle" speed="2.69" length="1.00" width="1.50" shape="1043.98,1628.90 1043.82,1628.69 1043.62,1628.56 1043.39,1628.52 1043.13,1628.55"/>
    </edge>
    <edge id=":J59_0" function="internal">
        <lane id=":J59_0_0" index="0" allow="taxi evehicle" speed="13.89" length="0.33" width="1.50" shape="721.84,1717.33 721.75,1717.36 721.68,1717.39 721.63,1717.42 721.55,1717.49"/>
    </edge>
    <edge id=":J6_0" function="internal">
        <lane id=":J6_0_0" index="0" allow="taxi evehicle" speed="13.89" length="15.29" width="1.50" shape="176.66,91.42 172.93,92.12 169.14,92.81 165.37,93.59 161.70,94.56"/>
    </edge>
    <edge id=":J6_1" function="internal">