<?xml version="1.0" encoding="UTF-8"?>
<!-- generated on 2022-03-11 13:27:48.363195 by net2poly.py v1_11_0+0960-9a7789007a4
  options: -n prt.net.xml -o prt_poly.add.xml
-->
<additional xmlns:xsi="http://www.w3.org/2001/XMLSchema-instance" xsi:noNamespaceSchemaLocation="http://sumo.dlr.de/xsd/additional_file.xsd">
    <poly id="-prtE10" color="red" layer="10" lineWidth="1.5" shape="9.71281893382253,50.871937211932604 9.711377748733856,50.87101857275264" geo="1"/>
    <poly id="-prtE21" color="red" layer="10" lineWidth="1.5" shape="9.715786554472563,50.87023559101477 9.714860468193791,50.870520674161284" geo="1"/>
    <poly id="-prtE22" color="red" layer="10" lineWidth="1.5" shape="9.716075904067216,50.87031888852582 9.715795791278877,50.87023553436996" geo="1"/>
    <poly id="-prtE23" color="red" layer="10" lineWidth="1.5" shape="9.716348796035794,50.87062647790492 9.71608063624159,50.870321647275496" geo="1"/>
    <poly id="-prtE24" color="red" layer="10" lineWidth="1.5" shape="9.716283851184597,50.87077507852005 9.716349727234222,50.870631598110364" geo="1"/>
    <poly id="-prtE3" color="red" layer="10" lineWidth="1.5" shape="9.708905432756605,50.87155331065589 9.708883160534185,50.87163096419088" geo="1"/>
    <poly id="-prtE36" color="red" layer="10" lineWidth="1.5" shape="9.715721093300528,50.87745868000694 9.716503093981714,50.87740882839253" geo="1"/>
    <poly id="-prtE37" color="red" layer="10" lineWidth="1.5" shape="9.715532770940982,50.87680983262433 9.71564731822249,50.877421272518" geo="1"/>
    <poly id="-prtE4" color="red" layer="10" lineWidth="1.5" shape="9.709533813705315,50.87135129035112 9.708911186929006,50.87154850950361" geo="1"/>
    <poly id="-prtE43" color="red" layer="10" lineWidth="1.5" shape="9.716891478449172,50.87756085066806 9.71648961303566,50.878411342109615" geo="1"/>
    <poly id="-prtE5" color="red" layer="10" lineWidth="1.5" shape="9.71030995531492,50.87118406911396 9.709634594745092,50.871324328656364" geo="1"/>
    <poly id="-prtE6" color="red" layer="10" lineWidth="1.5" shape="9.710687411818522,50.87110821006019 9.710438178726212,50.87115801885974" geo="1"/>
    <poly id="Depot" color="red" layer="10" lineWidth="1.5" shape="9.709506410291867,50.87113769713964 9.710269668666882,50.870983324301704" geo="1"/>
    <poly id="Hospital" color="red" layer="10" lineWidth="3.5" shape="9.71570301412307,50.87636656631867 9.715725846275436,50.876595159047774" geo="1"/>
    <poly id="Hospital_arrival" color="red" layer="10" lineWidth="3.5" shape="9.715417788358925,50.8763693490018 9.715677646874482,50.876352917854625" geo="1"/>
    <poly id="Hotel" color="red" layer="10" lineWidth="3.5" shape="9.708572915320955,50.871926733926614 9.708620313895423,50.8717158788771" geo="1"/>
    <poly id="Hotel_arrival" color="red" layer="10" lineWidth="3.5" shape="9.70853380288842,50.87204671099018 9.708572646779908,50.87192776973316" geo="1"/>
    <poly id="Pnord" color="red" layer="10" lineWidth="3.5" shape="9.724281354890623,50.88525801238314 9.723999200201726,50.88535234380972" geo="1"/>
    <poly id="Pnord_arrival" color="red" layer="10" lineWidth="3.5" shape="9.724396300351463,50.88522173252094 9.724284820837596,50.88525691173952" geo="1"/>
    <poly id="Station" color="red" layer="10" lineWidth="3.5" shape="9.71625483106217,50.871060734387584 9.716111888860958,50.87090509103743" geo="1"/>
    <poly id="Station_arrival" color="red" layer="10" lineWidth="3.5" shape="9.716350273468555,50.8711400950384 9.716282256680376,50.871083677692994" geo="1"/>
    <poly id="prtE0" color="red" layer="10" lineWidth="1.5" shape="9.708869643614566,50.871686172381146 9.708813371734147,50.87199595767315" geo="1"/>
    <poly id="prtE1" color="red" layer="10" lineWidth="1.5" shape="9.708807907173034,50.87200111677492 9.708599941414256,50.872073512828216" geo="1"/>
    <poly id="prtE10" color="red" layer="10" lineWidth="1.5" shape="9.711392952592442,50.8710090376069 9.712833995572185,50.871927677468484" geo="1"/>
    <poly id="prtE11" color="red" layer="10" lineWidth="1.5" shape="9.711368055330045,50.87101665340538 9.710899575164996,50.8710786805418" geo="1"/>
    <poly id="prtE12" color="red" layer="10" lineWidth="1.5" shape="9.709558430684368,50.8712877411895 9.709499285664808,50.8711458340028" geo="1"/>
    <poly id="prtE13" color="red" layer="10" lineWidth="1.5" shape="9.717023063825026,50.87627100968081 9.7167887766048,50.875860307004984" geo="1"/>
    <poly id="prtE14" color="red" layer="10" lineWidth="1.5" shape="9.710283095071878,50.87098773901899 9.71034717088783,50.871117295618404" geo="1"/>
    <poly id="prtE15" color="red" layer="10" lineWidth="1.5" shape="9.712873616531281,50.871944252102665 9.71381427176608,50.87217303658038" geo="1"/>
    <poly id="prtE19" color="red" layer="10" lineWidth="1.5" shape="9.714222412502203,50.870570983270255 9.714499794640112,50.87067099466933" geo="1"/>
    <poly id="prtE199" color="red" layer="10" lineWidth="3.5" shape="9.716500985879687,50.87103305444079 9.716387782941919,50.871139415184835" geo="1"/>
    <poly id="prtE2" color="red" layer="10" lineWidth="1.5" shape="9.708683960180354,50.87168145457018 9.708811155383987,50.871662426767" geo="1"/>
    <poly id="prtE20" color="red" layer="10" lineWidth="1.5" shape="9.714229623915676,50.87054998582072 9.71480710707318,50.87051632468248" geo="1"/>
    <poly id="prtE201" color="red" layer="10" lineWidth="3.5" shape="9.71548126101179,50.87672727941087 9.715397293732842,50.87638615631894" geo="1"/>
    <poly id="prtE21" color="red" layer="10" lineWidth="1.5" shape="9.71485118637882,50.87050850074183 9.715777272474485,50.870223417669116" geo="1"/>
    <poly id="prtE22" color="red" layer="10" lineWidth="1.5" shape="9.715804842158734,50.87022333852615 9.7160849535119,50.87030660274073" geo="1"/>
    <poly id="prtE23" color="red" layer="10" lineWidth="1.5" shape="9.716099296272892,50.870315147876205 9.716367454772314,50.870619888542784" geo="1"/>
    <poly id="prtE24" color="red" layer="10" lineWidth="1.5" shape="9.716370251130625,50.870635428998554 9.716304233032497,50.87077891029157" geo="1"/>
    <poly id="prtE25" color="red" layer="10" lineWidth="1.5" shape="9.71631316722398,50.87081473690529 9.716490664430859,50.87098091434903" geo="1"/>
    <poly id="prtE26" color="red" layer="10" lineWidth="1.5" shape="9.714821338750355,50.870536201636135 9.71455423089083,50.87067129092805" geo="1"/>
    <poly id="prtE27" color="red" layer="10" lineWidth="1.5" shape="9.7145150548426,50.87070237620147 9.714244448481383,50.87125961017016" geo="1"/>
    <poly id="prtE28" color="red" layer="10" lineWidth="1.5" shape="9.714243762679043,50.871261233078144 9.71388257742456,50.8721507662379" geo="1"/>
    <poly id="prtE29" color="red" layer="10" lineWidth="1.5" shape="9.713916619804117,50.87220217692654 9.716972833993422,50.87317346575977" geo="1"/>
    <poly id="prtE3" color="red" layer="10" lineWidth="1.5" shape="9.708862088822794,50.871628484239785 9.70888450318805,50.87155082984558" geo="1"/>
    <poly id="prtE30" color="red" layer="10" lineWidth="1.5" shape="9.716977424397545,50.87317622534329 9.718703405826641,50.875153207823935" geo="1"/>
    <poly id="prtE31" color="red" layer="10" lineWidth="1.5" shape="9.71869744267017,50.87516286687589 9.717752081164075,50.87536418808069" geo="1"/>
    <poly id="prtE32" color="red" layer="10" lineWidth="1.5" shape="9.717745242962812,50.87537241361013 9.717827406746926,50.875548887369405" geo="1"/>
    <poly id="prtE33" color="red" layer="10" lineWidth="1.5" shape="9.717839918015331,50.87557686807624 9.717785445042676,50.876694113180484" geo="1"/>
    <poly id="prtE34" color="red" layer="10" lineWidth="1.5" shape="9.717786630384722,50.87669725338343 9.71833858420167,50.87740204361051" geo="1"/>
    <poly id="prtE35" color="red" layer="10" lineWidth="1.5" shape="9.718329068908336,50.8774118144274 9.716668145541838,50.87741986553781" geo="1"/>
    <poly id="prtE36" color="red" layer="10" lineWidth="1.5" shape="9.71650528921376,50.87742221423816 9.715723289688599,50.877472155787935" geo="1"/>
    <poly id="prtE37" color="red" layer="10" lineWidth="3.5" shape="9.715613811470941,50.87742377111377 9.715499264621121,50.87681233118573" geo="1"/>
    <poly id="prtE38" color="red" layer="10" lineWidth="1.5" shape="9.716666442910917,50.87740153061274 9.716906937474581,50.87739187032581" geo="1"/>
    <poly id="prtE39" color="red" layer="10" lineWidth="1.5" shape="9.716918273082069,50.877398815114425 9.716913493072555,50.8774856253084" geo="1"/>
    <poly id="prtE4" color="red" layer="10" lineWidth="1.5" shape="9.708901623598415,50.87153642725405 9.709524393728598,50.87133929720891" geo="1"/>
    <poly id="prtE40" color="red" layer="10" lineWidth="1.5" shape="9.716662648382862,50.87738581645264 9.716897599993503,50.877348402362905" geo="1"/>
    <poly id="prtE41" color="red" layer="10" lineWidth="1.5" shape="9.71690560737351,50.877342238057565 9.716954600033892,50.87678348219664" geo="1"/>
    <poly id="prtE42" color="red" layer="10" lineWidth="1.5" shape="9.716833632964352,50.87750563021268 9.716593668321314,50.87743866816046" geo="1"/>
    <poly id="prtE43" color="red" layer="10" lineWidth="1.5" shape="9.716469084328626,50.87840742134159 9.716871092210493,50.87755692909592" geo="1"/>
    <poly id="prtE44" color="red" layer="10" lineWidth="1.5" shape="9.71653672780842,50.87846195232759 9.717332998522028,50.87857207999381" geo="1"/>
    <poly id="prtE45" color="red" layer="10" lineWidth="1.5" shape="9.717339390231036,50.87857177092945 9.718007320182652,50.87839590123834" geo="1"/>
    <poly id="prtE46" color="red" layer="10" lineWidth="1.5" shape="9.71801842562708,50.87839709192325 9.718288652433868,50.878545879459224" geo="1"/>
    <poly id="prtE47" color="red" layer="10" lineWidth="1.5" shape="9.71829564306561,50.87854754507995 9.71966293857401,50.878548745620506" geo="1"/>
    <poly id="prtE48" color="red" layer="10" lineWidth="1.5" shape="9.719671364403942,50.87855130159369 9.720048342010573,50.878856531631534" geo="1"/>
    <poly id="prtE49" color="red" layer="10" lineWidth="1.5" shape="9.720050083611621,50.87885885902456 9.720328513883006,50.87947458897389" geo="1"/>
    <poly id="prtE5" color="red" layer="10" lineWidth="1.5" shape="9.709628004623028,50.871311508962144 9.710303365028139,50.87117124945823" geo="1"/>
    <poly id="prtE50" color="red" layer="10" lineWidth="1.5" shape="9.720340245014716,50.8794794626379 9.722251475051324,50.879309558671885" geo="1"/>
    <poly id="prtE51" color="red" layer="10" lineWidth="1.5" shape="9.722263351252371,50.87931461110212 9.722759457384825,50.880592928890415" geo="1"/>
    <poly id="prtE52" color="red" layer="10" lineWidth="1.5" shape="9.722760329676587,50.880594182485645 9.723387460699827,50.88141826760991" geo="1"/>
    <poly id="prtE53" color="red" layer="10" lineWidth="1.5" shape="9.723392886680017,50.881447370751296 9.723649865283072,50.88300531419527" geo="1"/>
    <poly id="prtE54" color="red" layer="10" lineWidth="1.5" shape="9.723649568459827,50.883004506680926 9.724221205118663,50.884546468635634" geo="1"/>
    <poly id="prtE55" color="red" layer="10" lineWidth="1.5" shape="9.724224339508357,50.88457441687476 9.724264447354694,50.88495150695141" geo="1"/>
    <poly id="prtE56" color="red" layer="10" lineWidth="1.5" shape="9.724265480043668,50.88495392860671 9.724421326462664,50.88515790802379" geo="1"/>
    <poly id="prtE58" color="red" layer="10" lineWidth="1.5" shape="9.714551016766814,50.87475531851745 9.714217481786088,50.87318694071598" geo="1"/>
    <poly id="prtE59" color="red" layer="10" lineWidth="1.5" shape="9.723903662580623,50.88532919525514 9.723438841829378,50.884827939139925" geo="1"/>
    <poly id="prtE6" color="red" layer="10" lineWidth="1.5" shape="9.710431730515724,50.871145198346376 9.710680962179392,50.8710952996407" geo="1"/>
    <poly id="prtE60" color="red" layer="10" lineWidth="1.5" shape="9.72342671043452,50.88482486683363 9.718871892234091,50.88565138809345" geo="1"/>
    <poly id="prtE61" color="red" layer="10" lineWidth="1.5" shape="9.71886779198249,50.885652852194944 9.716930588392865,50.886713868065414" geo="1"/>
    <poly id="prtE62" color="red" layer="10" lineWidth="1.5" shape="9.716919660415464,50.8867151042458 9.716576860890187,50.8866296189705" geo="1"/>
    <poly id="prtE63" color="red" layer="10" lineWidth="1.5" shape="9.716571035377203,50.886620571983485 9.7175003113929,50.88528293739722" geo="1"/>
    <poly id="prtE64" color="red" layer="10" lineWidth="1.5" shape="9.71750100004528,50.88528149431306 9.717708587113703,50.884580127033814" geo="1"/>
    <poly id="prtE65" color="red" layer="10" lineWidth="1.5" shape="9.717703931985998,50.884573231181705 9.714835893266828,50.883388938712606" geo="1"/>
    <poly id="prtE66" color="red" layer="10" lineWidth="1.5" shape="9.714831128185887,50.88338411176824 9.71458546610409,50.88201717787091" geo="1"/>
    <poly id="prtE67" color="red" layer="10" lineWidth="1.5" shape="9.714585990651557,50.88201429695585 9.716428417746478,50.87848995534778" geo="1"/>
    <poly id="prtE7" color="red" layer="10" lineWidth="1.5" shape="9.710886018444668,50.871047018383535 9.71110154095833,50.870995435579346" geo="1"/>
    <poly id="prtE72" color="red" layer="10" lineWidth="1.5" shape="9.716954848409129,50.8767811425343 9.717023676473117,50.876273883624506" geo="1"/>
    <poly id="prtE73" color="red" layer="10" lineWidth="1.5" shape="9.714211004209329,50.873181584648506 9.71321909479048,50.87292982510312" geo="1"/>
    <poly id="prtE74" color="red" layer="10" lineWidth="1.5" shape="9.716786895916016,50.87585816027349 9.715573488942118,50.87496722099471" geo="1"/>
    <poly id="prtE75" color="red" layer="10" lineWidth="1.5" shape="9.715568625221213,50.87496518245903 9.71455820794501,50.8747608500534" geo="1"/>
    <poly id="prtE76" color="red" layer="10" lineWidth="1.5" shape="9.713212770455518,50.872925187471026 9.712841783595946,50.87196306169372" geo="1"/>
    <poly id="prtE78" color="red" layer="10" lineWidth="1.5" shape="9.715748968901611,50.87675455013077 9.715592468844678,50.8767634233548" geo="1"/>
    <poly id="prtE8" color="red" layer="10" lineWidth="1.5" shape="9.711105797332218,50.87099496000617 9.71136327658425,50.8710014846295" geo="1"/>
    <poly id="prtE9" color="red" layer="10" lineWidth="1.5" shape="9.71089305981601,50.87106145397079 9.714146448896507,50.87055696959516" geo="1"/>
    <poly id="prtE96" color="red" layer="10" lineWidth="1.5" shape="9.716146466156783,50.870842918208105 9.716248208195564,50.87080479376905" geo="1"/>
    <poly id="prtE99" color="red" layer="10" lineWidth="1.5" shape="9.715717411423704,50.876615174857626 9.715758510775975,50.87674648799932" geo="1"/>
</additional>
