<?xml version="1.0" encoding="UTF-8"?>

<!-- generated on 2022-01-10 14:42:36 by Eclipse SUMO netedit Version 1.11.0
<configuration xmlns:xsi="http://www.w3.org/2001/XMLSchema-instance" xsi:noNamespaceSchemaLocation="http://sumo.dlr.de/xsd/netconvertConfiguration.xsd">

    <input>
        <sumo-net-file value="H:\Pycharm_Projects\badhersfeld\prt_infra\prt_test.net.xml"/>
    </input>

    <output>
        <output-file value="H:\Pycharm_Projects\badhersfeld\prt_infra\prt_test.net.xml"/>
    </output>

    <processing>
        <geometry.min-radius.fix.railways value="false"/>
        <geometry.max-grade.fix value="false"/>
        <offset.disable-normalization value="true"/>
        <lefthand value="false"/>
    </processing>

    <junctions>
        <no-turnarounds value="true"/>
        <junctions.corner-detail value="5"/>
        <junctions.limit-turn-speed value="5.5"/>
        <rectangular-lane-cut value="false"/>
    </junctions>

    <pedestrian>
        <walkingareas value="false"/>
    </pedestrian>

    <report>
        <aggregate-warnings value="5"/>
    </report>

</configuration>
-->

<net version="1.9" junctionCornerDetail="5" limitTurnSpeed="5.50" xmlns:xsi="http://www.w3.org/2001/XMLSchema-instance" xsi:noNamespaceSchemaLocation="http://sumo.dlr.de/xsd/net_file.xsd">

    <location netOffset="-549779.53,-5635549.22" convBoundary="10.93,4.51,664.42,826.01" origBoundary="9.707448,50.869477,9.716987,50.876859" projParameter="+proj=utm +zone=32 +ellps=WGS84 +datum=WGS84 +units=m +no_defs"/>

    <type id="highway.prt" allow="taxi evehicle" width="1.50"/>

    <edge id=":gneJ0_0" function="internal">
        <lane id=":gneJ0_0_0" index="0" allow="taxi evehicle" speed="13.89" length="5.55" width="1.50" shape="630.75,136.09 632.77,141.26"/>
    </edge>
    <edge id=":gneJ0_1" function="internal">
        <lane id=":gneJ0_1_0" index="0" allow="taxi evehicle" speed="6.08" length="5.01" width="1.50" shape="628.73,141.40 629.41,140.28 629.73,139.12 629.72,137.92 629.36,136.67"/>
    </edge>
    <edge id=":gneJ101_0" function="internal">
        <lane id=":gneJ101_0_0" index="0" allow="taxi evehicle" speed="6.16" length="6.38" width="1.50" shape="332.44,276.68 330.86,276.79 329.51,277.39 328.40,278.46 327.52,280.01"/>
    </edge>
    <edge id=":gneJ101_1" function="internal">
        <lane id=":gneJ101_1_0" index="0" allow="taxi evehicle" speed="10.37" length="7.14" width="1.50" shape="332.44,276.68 330.33,276.53 328.86,276.26 327.55,275.63 325.91,274.35"/>
    </edge>
    <edge id=":gneJ118_0" function="internal">
        <lane id=":gneJ118_0_0" index="0" allow="taxi evehicle" speed="13.89" length="9.55" width="1.50" shape="22.92,77.35 13.72,74.79"/>
    </edge>
    <edge id=":gneJ118_1" function="internal">
        <lane id=":gneJ118_1_0" index="0" allow="taxi evehicle" speed="5.35" length="7.45" width="1.50" shape="22.92,77.35 20.98,76.52 19.92,75.31 19.76,73.71 20.48,71.72"/>
    </edge>
    <edge id=":gneJ119_0" function="internal">
        <lane id=":gneJ119_0_0" index="0" allow="taxi evehicle" speed="13.25" length="4.51" width="1.50" shape="27.06,54.45 28.34,54.85 29.23,55.09 30.14,55.16 31.46,55.06"/>
    </edge>
    <edge id=":gneJ119_1" function="internal">
        <lane id=":gneJ119_1_0" index="0" allow="taxi evehicle" speed="5.85" length="1.86" width="1.50" shape="28.24,57.27 28.83,56.40 29.44,55.86"/>
    </edge>
    <edge id=":gneJ119_2" function="internal">
        <lane id=":gneJ119_2_0" index="0" allow="taxi evehicle" speed="5.85" length="2.20" width="1.50" shape="29.44,55.86 29.57,55.74 30.44,55.29 31.46,55.06"/>
    </edge>
    <edge id=":gneJ121_0" function="internal">
        <lane id=":gneJ121_0_0" index="0" allow="taxi evehicle" speed="11.16" length="10.02" width="1.50" shape="42.39,32.36 39.89,30.88 38.44,29.44 37.45,27.58 36.35,24.82"/>
    </edge>
    <edge id=":gneJ121_1" function="internal">
        <lane id=":gneJ121_1_0" index="0" allow="taxi evehicle" speed="5.65" length="8.15" width="1.50" shape="42.39,32.36 40.70,31.09 40.01,29.54 40.32,27.71 41.61,25.59"/>
    </edge>
    <edge id=":gneJ126_0" function="internal">
        <lane id=":gneJ126_0_0" index="0" allow="taxi evehicle" speed="13.89" length="0.12" width="1.50" shape="12.24,66.03 12.25,66.00 12.26,65.97 12.27,65.95 12.28,65.92"/>
    </edge>
    <edge id=":gneJ127_0" function="internal">
        <lane id=":gneJ127_0_0" index="0" allow="taxi evehicle" speed="2.68" length="1.07" width="1.50" shape="18.62,52.65 18.78,52.41 18.98,52.26 19.23,52.21 19.51,52.25"/>
    </edge>
    <edge id=":gneJ129_0" function="internal">
        <lane id=":gneJ129_0_0" index="0" allow="taxi evehicle" speed="2.67" length="1.21" width="1.50" shape="10.72,73.93 10.42,73.79 10.23,73.59 10.16,73.33 10.21,73.00"/>
    </edge>
    <edge id=":gneJ130_0" function="internal">
        <lane id=":gneJ130_0_0" index="0" speed="2.67" length="1.24" width="1.50" shape="631.26,179.88 630.95,180.03 630.67,180.04 630.42,179.92 630.20,179.66"/>
    </edge>
    <edge id=":gneJ131_0" function="internal">
        <lane id=":gneJ131_0_0" index="0" speed="2.68" length="1.14" width="1.50" shape="550.77,780.84 550.77,780.53 550.87,780.28 551.06,780.11 551.36,780.01"/>
    </edge>
    <edge id=":gneJ15_0" function="internal">
        <lane id=":gneJ15_0_0" index="0" allow="taxi evehicle" speed="8.72" length="3.35" width="1.50" shape="364.09,54.99 363.31,54.39 362.72,54.03 362.07,53.82 361.10,53.64"/>
    </edge>
    <edge id=":gneJ15_1" function="internal">
        <lane id=":gneJ15_1_0" index="0" allow="taxi evehicle" speed="13.89" length="3.45" width="1.50" shape="361.35,52.16 364.73,52.87"/>
    </edge>
    <edge id=":gneJ2_0" function="internal">
        <lane id=":gneJ2_0_0" index="0" allow="taxi evehicle" speed="9.44" length="9.56" width="1.50" shape="637.41,171.72 636.90,173.81 635.85,175.78 634.24,177.61 632.10,179.31"/>
    </edge>
    <edge id=":gneJ2_1" function="internal">
        <lane id=":gneJ2_1_0" index="0" allow="taxi evehicle" speed="4.51" length="7.27" width="1.50" shape="637.41,171.72 636.91,174.04 636.08,174.98 634.90,174.53 633.40,172.69"/>
    </edge>
    <edge id=":gneJ33_0" function="internal">
        <lane id=":gneJ33_0_0" index="0" allow="taxi evehicle" speed="13.89" length="4.33" width="1.50" shape="317.26,305.69 315.30,301.83"/>
    </edge>
    <edge id=":gneJ33_1" function="internal">
        <lane id=":gneJ33_1_0" index="0" allow="taxi evehicle" speed="6.30" length="4.07" width="1.50" shape="318.51,301.10 318.20,302.09 318.11,303.08 318.25,304.06 318.61,305.04"/>
    </edge>
    <edge id=":gneJ52_0" function="internal">
        <lane id=":gneJ52_0_0" index="0" allow="taxi evehicle" speed="12.00" length="3.42" width="1.50" shape="566.30,812.02 566.10,811.03 565.90,810.36 565.58,809.74 565.04,808.89"/>
    </edge>
    <edge id=":gneJ52_1" function="internal">
        <lane id=":gneJ52_1_0" index="0" allow="taxi evehicle" speed="7.80" length="3.39" width="1.50" shape="568.09,808.45 567.73,809.38 567.58,810.06 567.60,810.75 567.77,811.74"/>
    </edge>
    <edge id=":gneJ53_0" function="internal">
        <lane id=":gneJ53_0_0" index="0" allow="taxi evehicle" speed="13.89" length="9.75" width="1.50" shape="554.17,792.59 552.65,790.16 551.87,788.33 551.48,786.36 551.11,783.49"/>
    </edge>
    <edge id=":gneJ53_1" function="internal">
        <lane id=":gneJ53_1_0" index="0" allow="taxi evehicle" speed="4.94" length="7.26" width="1.50" shape="554.17,792.59 553.22,790.65 553.29,789.19 554.37,788.19 556.46,787.67"/>
    </edge>
    <edge id=":gneJ54_0" function="internal">
        <lane id=":gneJ54_0_0" index="0" allow="taxi evehicle" speed="13.89" length="3.12" width="1.50" shape="559.16,778.38 560.07,778.22 560.70,778.20 561.34,778.21 562.26,778.19"/>
    </edge>
    <edge id=":gneJ6_0" function="internal">
        <lane id=":gneJ6_0_0" index="0" allow="taxi evehicle" speed="13.89" length="0.81" width="1.50" shape="589.55,83.54 589.36,83.45 589.17,83.42 588.98,83.44 588.78,83.52"/>
    </edge>
    <edge id=":gneJ6_1" function="internal">
        <lane id=":gneJ6_1_0" index="0" allow="taxi evehicle" speed="4.30" length="2.43" width="1.50" shape="588.04,82.22 588.62,81.97 589.20,81.90 589.78,82.00 590.35,82.27"/>
    </edge>
    <edge id=":gneJ65_0" function="internal">
        <lane id=":gneJ65_0_0" index="0" allow="taxi evehicle" speed="13.89" length="6.71" width="1.50" shape="46.67,50.58 44.92,57.05"/>
    </edge>
    <edge id=":gneJ65_1" function="internal">
        <lane id=":gneJ65_1_0" index="0" allow="taxi evehicle" speed="5.96" length="5.84" width="1.50" shape="41.16,53.88 42.65,53.50 43.82,52.77 44.68,51.68 45.21,50.24"/>
    </edge>
    <edge id=":gneJ78_0" function="internal">
        <lane id=":gneJ78_0_0" index="0" allow="taxi evehicle" speed="13.89" length="5.40" width="1.50" shape="374.19,88.87 373.84,83.47"/>
    </edge>
    <edge id=":gneJ78_1" function="internal">
        <lane id=":gneJ78_1_0" index="0" allow="taxi evehicle" speed="9.79" length="5.35" width="1.50" shape="374.19,88.87 374.29,87.32 374.64,86.30 375.26,85.36 376.16,84.04"/>
    </edge>
    <edge id=":gneJ85_0" function="internal">
        <lane id=":gneJ85_0_0" index="0" allow="taxi evehicle" speed="13.89" length="0.10" width="1.50" shape="626.47,173.66 626.51,173.71"/>
    </edge>
    <edge id=":gneJ86_0" function="internal">
        <lane id=":gneJ86_0_0" index="0" allow="taxi evehicle" speed="2.67" length="1.19" width="1.50" shape="614.58,157.62 614.42,157.33 614.39,157.06 614.49,156.81 614.72,156.58"/>
    </edge>
    <edge id=":gneJ87_0" function="internal">
        <lane id=":gneJ87_0_0" index="0" allow="taxi evehicle" speed="2.68" length="1.15" width="1.50" shape="575.24,777.44 575.55,777.47 575.78,777.59 575.94,777.80 576.02,778.10"/>
    </edge>
    <edge id=":gneJ93_0" function="internal">
        <lane id=":gneJ93_0_0" index="0" allow="taxi evehicle" speed="5.95" length="6.35" width="1.50" shape="53.75,35.81 52.09,36.08 50.79,36.79 49.84,37.94 49.24,39.52"/>
    </edge>
    <edge id=":gneJ93_1" function="internal">
        <lane id=":gneJ93_1_0" index="0" allow="taxi evehicle" speed="6.58" length="7.96" width="1.50" shape="47.78,39.19 47.84,37.45 47.18,35.85 45.81,34.39 43.71,33.05"/>
    </edge>
    <edge id=":gneJ93_2" function="internal">
        <lane id=":gneJ93_2_0" index="0" allow="taxi evehicle" speed="6.82" length="8.34" width="1.50" shape="47.78,39.19 48.56,37.11 49.80,35.59 51.51,34.64 53.68,34.24"/>
    </edge>
    <edge id=":gneJ96_0" function="internal">
        <lane id=":gneJ96_0_0" index="0" allow="taxi evehicle" speed="13.89" length="4.50" width="1.50" shape="500.16,103.99 501.37,104.56 502.22,104.88 503.10,105.15 504.38,105.52"/>
    </edge>
    <edge id=":gneJ96_1" function="internal">
        <lane id=":gneJ96_1_0" index="0" allow="taxi evehicle" speed="4.47" length="3.71" width="1.50" shape="500.16,103.99 501.01,104.55 501.53,105.25 501.72,106.08 501.59,107.04"/>
    </edge>
    <edge id=":sz_1_0" function="internal">
        <lane id=":sz_1_0_0" index="0" allow="taxi evehicle" speed="13.89" length="7.52" width="1.50" shape="486.55,165.58 485.16,167.34 484.16,168.54 483.40,169.85 482.71,171.94"/>
    </edge>
    <edge id=":sz_1_1" function="internal">
        <lane id=":sz_1_1_0" index="0" allow="taxi evehicle" speed="13.89" length="7.52" width="1.50" shape="484.76,164.71 482.71,171.94"/>
    </edge>
    <edge id=":sz_135_0" function="internal">
        <lane id=":sz_135_0_0" index="0" allow="taxi evehicle" speed="13.89" length="9.71" width="1.50" shape="52.25,4.52 54.59,6.19 56.15,7.43 57.49,8.88 59.18,11.19"/>
    </edge>
    <edge id=":sz_135_1" function="internal">
        <lane id=":sz_135_1_0" index="0" allow="taxi evehicle" speed="5.26" length="4.44" width="1.50" shape="53.16,11.06 54.72,9.58 56.24,9.11 56.89,9.34"/>
    </edge>
    <edge id=":sz_135_2" function="internal">
        <lane id=":sz_135_2_0" index="0" allow="taxi evehicle" speed="5.26" length="3.01" width="1.50" shape="56.89,9.34 57.73,9.64 59.18,11.19"/>
    </edge>
    <edge id=":sz_14_0" function="internal">
        <lane id=":sz_14_0_0" index="0" allow="taxi evehicle" speed="13.89" length="5.47" width="1.50" shape="412.28,68.42 413.78,69.05 414.81,69.48 415.86,69.82 417.45,70.15"/>
    </edge>
    <edge id=":sz_14_1" function="internal">
        <lane id=":sz_14_1_0" index="0" allow="taxi evehicle" speed="13.89" length="5.44" width="1.50" shape="412.11,70.74 413.68,70.32 414.77,70.04 415.86,69.96 417.45,70.15"/>
    </edge>
    <edge id=":sz_25_0" function="internal">
        <lane id=":sz_25_0_0" index="0" allow="taxi evehicle" speed="13.89" length="7.13" width="1.50" shape="281.79,239.13 278.41,232.85"/>
    </edge>
    <edge id=":sz_25_1" function="internal">
        <lane id=":sz_25_1_0" index="0" allow="taxi evehicle" speed="13.89" length="7.13" width="1.50" shape="283.37,237.86 281.70,236.54 280.52,235.65 279.53,234.61 278.41,232.85"/>
    </edge>
    <edge id=":sz_3_0" function="internal">
        <lane id=":sz_3_0_0" index="0" allow="taxi evehicle" speed="4.85" length="1.72" width="1.50" shape="621.28,154.37 620.84,153.48 620.75,152.77"/>
    </edge>
    <edge id=":sz_3_2" function="internal">
        <lane id=":sz_3_2_0" index="0" allow="taxi evehicle" speed="4.85" length="2.12" width="1.50" shape="620.75,152.77 620.73,152.59 620.93,151.70 621.45,150.82"/>
    </edge>
    <edge id=":sz_3_1" function="internal">
        <lane id=":sz_3_1_0" index="0" allow="taxi evehicle" speed="13.89" length="4.50" width="1.50" shape="618.18,153.87 619.24,153.06 619.96,152.49 620.61,151.85 621.45,150.82"/>
    </edge>
    <edge id=":sz_5_0" function="internal">
        <lane id=":sz_5_0_0" index="0" allow="taxi evehicle" speed="13.89" length="4.87" width="1.50" shape="76.93,30.79 77.95,31.81 78.66,32.52 79.43,33.13 80.66,33.88"/>
    </edge>
    <edge id=":sz_5_1" function="internal">
        <lane id=":sz_5_1_0" index="0" allow="taxi evehicle" speed="9.55" length="4.79" width="1.50" shape="76.03,33.19 77.45,33.09 78.45,33.06 79.40,33.27 80.66,33.88"/>
    </edge>
    <edge id=":sz_55_0" function="internal">
        <lane id=":sz_55_0_0" index="0" allow="taxi evehicle" speed="13.89" length="9.77" width="1.50" shape="576.34,780.70 576.71,783.57 576.80,785.59 576.44,787.54 575.46,790.24"/>
    </edge>
    <edge id=":sz_55_1" function="internal">
        <lane id=":sz_55_1_0" index="0" allow="taxi evehicle" speed="4.92" length="4.09" width="1.50" shape="572.19,785.94 574.36,786.00 575.63,786.73 575.75,787.17"/>
    </edge>
    <edge id=":sz_55_2" function="internal">
        <lane id=":sz_55_2_0" index="0" allow="taxi evehicle" speed="4.92" length="3.17" width="1.50" shape="575.75,787.17 576.00,788.14 575.46,790.24"/>
    </edge>
    <edge id=":sz_7_0" function="internal">
        <lane id=":sz_7_0_0" index="0" allow="taxi evehicle" speed="13.89" length="3.40" width="1.50" shape="548.63,106.33 545.62,107.91"/>
    </edge>
    <edge id=":sz_7_1" function="internal">
        <lane id=":sz_7_1_0" index="0" allow="taxi evehicle" speed="9.92" length="3.31" width="1.50" shape="544.77,105.96 545.75,105.88 546.41,105.76 547.04,105.50 547.89,105.03"/>
    </edge>

    <edge id="-gneE107" from="gneJ65" to="gneJ93" priority="-1" type="highway.prt">
        <lane id="-gneE107_0" index="0" allow="taxi evehicle" speed="13.89" length="11.35" width="1.50" shape="45.21,50.24 47.78,39.19"/>
    </edge>
    <edge id="-gneE185" from="sz_7" to="gneJ6" priority="-1" type="highway.prt">
        <lane id="-gneE185_0" index="0" allow="taxi evehicle" speed="13.89" length="46.17" width="1.50" shape="547.89,105.03 588.04,82.22"/>
    </edge>
    <edge id="-gneE211" from="gneJ0" to="gneJ6" priority="-1" type="highway.prt" shape="631.28,139.33 614.14,98.03 589.19,82.43">
        <lane id="-gneE211_0" index="0" allow="taxi evehicle" speed="13.89" length="69.58" width="1.50" shape="629.36,136.67 613.54,98.54 589.55,83.54"/>
    </edge>
    <edge id="-gneE52" from="gneJ52" to="gneJ33" priority="-1" type="highway.prt" shape="566.66,809.97 569.81,826.01 658.62,816.98 664.42,777.44 663.81,761.42 658.64,735.68 643.71,707.85 625.36,684.20 581.85,635.96 546.98,611.82 492.68,594.95 482.67,538.47 474.05,476.78 468.01,416.89 404.29,392.14 391.46,386.90 349.20,377.15 345.39,363.77 339.26,349.25 316.84,303.11">
        <lane id="-gneE52_0" index="0" allow="taxi evehicle" speed="13.89" length="792.65" width="1.50" shape="567.77,811.74 570.41,825.19 657.96,816.29 663.67,777.40 663.06,761.51 657.93,735.94 643.08,708.26 624.78,684.68 581.35,636.53 546.65,612.50 492.02,595.53 481.93,538.59 473.31,476.87 467.31,417.42 404.01,392.84 391.23,387.62 348.60,377.78 344.68,364.02 338.58,349.56 317.26,305.69"/>
    </edge>
    <edge id="Hospital" from="gneJ54" to="gneJ87" priority="-1" type="highway.prt">
        <lane id="Hospital_0" index="0" allow="taxi evehicle" speed="13.89" length="13.00" width="1.50" shape="562.26,778.19 575.24,777.44"/>
    </edge>
    <edge id="Hospital_arrival" from="gneJ131" to="gneJ54" priority="-1" type="highway.prt">
        <lane id="Hospital_arrival_0" index="0" speed="13.89" length="7.97" width="1.50" shape="551.36,780.01 559.16,778.38"/>
    </edge>
    <edge id="Hotel" from="gneJ126" to="gneJ127" priority="-1" type="highway.prt">
        <lane id="Hotel_0" index="0" allow="taxi evehicle" speed="13.89" length="14.71" width="1.50" shape="12.28,65.92 18.62,52.65"/>
    </edge>
    <edge id="Hotel_arrival" from="gneJ129" to="gneJ126" priority="-1" type="highway.prt">
        <lane id="Hotel_arrival_0" index="0" allow="taxi evehicle" speed="13.89" length="7.26" width="1.50" shape="10.21,73.00 12.24,66.03"/>
    </edge>
    <edge id="Station" from="gneJ85" to="gneJ86" priority="-1" type="highway.prt">
        <lane id="Station_0" index="0" allow="taxi evehicle" speed="13.89" length="20.03" width="1.50" shape="626.51,173.71 614.58,157.62"/>
    </edge>
    <edge id="Station_arrival" from="gneJ130" to="gneJ85" priority="-1" type="highway.prt">
        <lane id="Station_arrival_0" index="0" speed="13.89" length="7.06" width="1.50" shape="630.20,179.66 626.47,173.66"/>
    </edge>
    <edge id="gneE0" from="gneJ0" to="gneJ2" priority="-1" type="highway.prt" shape="631.28,139.33 638.13,158.41 636.23,175.61">
        <lane id="gneE0_0" index="0" allow="taxi evehicle" speed="13.89" length="31.60" width="1.50" shape="632.77,141.26 638.89,158.32 637.41,171.72"/>
    </edge>
    <edge id="gneE107" from="gneJ93" to="gneJ65" priority="-1" type="highway.prt">
        <lane id="gneE107_0" index="0" allow="taxi evehicle" speed="13.89" length="11.35" width="1.50" shape="49.24,39.52 46.67,50.58"/>
    </edge>
    <edge id="gneE114" from="gneJ96" to="sz_7" priority="-1" type="highway.prt" shape="501.29,105.38 512.86,108.82 546.66,106.59">
        <lane id="gneE114_0" index="0" allow="taxi evehicle" speed="13.89" length="40.83" width="1.50" shape="504.38,105.52 512.94,108.06 544.77,105.96"/>
    </edge>
    <edge id="gneE117" from="gneJ96" to="sz_1" priority="-1" type="highway.prt">
        <lane id="gneE117_0" index="0" allow="taxi evehicle" speed="13.89" length="60.07" width="1.50" shape="501.59,107.04 484.76,164.71"/>
    </edge>
    <edge id="gneE119" from="sz_7" to="sz_1" priority="-1" type="highway.prt" shape="546.66,106.59 518.39,119.89 482.43,170.03">
        <lane id="gneE119_0" index="0" allow="taxi evehicle" speed="13.89" length="85.03" width="1.50" shape="545.62,107.91 518.89,120.49 486.55,165.58"/>
    </edge>
    <edge id="gneE13" from="sz_14" to="gneJ96" priority="-1" type="highway.prt" shape="415.84,70.63 440.85,74.99 467.06,86.25 479.59,92.93 489.45,99.59 501.29,105.38">
        <lane id="gneE13_0" index="0" allow="taxi evehicle" speed="13.89" length="90.28" width="1.50" shape="417.45,70.15 441.07,74.27 467.39,85.57 479.98,92.29 489.83,98.94 500.16,103.99"/>
    </edge>
    <edge id="gneE152" from="gneJ65" to="gneJ118" priority="-1" type="highway.prt" shape="45.07,54.16 36.59,80.22 19.25,75.60">
        <lane id="gneE152_0" index="0" allow="taxi evehicle" speed="13.89" length="39.97" width="1.50" shape="44.92,57.05 37.08,81.13 22.92,77.35"/>
    </edge>
    <edge id="gneE154" from="gneJ118" to="gneJ119" priority="-1" type="highway.prt">
        <lane id="gneE154_0" index="0" allow="taxi evehicle" speed="13.89" length="16.40" width="1.50" shape="20.48,71.72 28.24,57.27"/>
    </edge>
    <edge id="gneE155" from="gneJ119" to="gneJ65" priority="-1" type="highway.prt">
        <lane id="gneE155_0" index="0" allow="taxi evehicle" speed="13.89" length="9.76" width="1.50" shape="31.46,55.06 41.16,53.88"/>
    </edge>
    <edge id="gneE158" from="gneJ121" to="sz_135" priority="-1" type="highway.prt" shape="39.18,29.86 36.50,23.18 50.95,4.51 56.28,8.34">
        <lane id="gneE158_0" index="0" allow="taxi evehicle" speed="13.89" length="28.45" width="1.50" shape="36.35,24.82 35.64,23.06 50.80,3.48 52.25,4.52"/>
    </edge>
    <edge id="gneE162" from="gneJ15" to="sz_14" priority="-1" type="highway.prt" shape="363.09,53.22 387.80,59.57 415.84,70.63">
        <lane id="gneE162_0" index="0" allow="taxi evehicle" speed="13.89" length="50.12" width="1.50" shape="364.73,52.87 388.03,58.86 412.28,68.42"/>
    </edge>
    <edge id="gneE170" from="gneJ127" to="gneJ119" priority="-1" type="highway.prt">
        <lane id="gneE170_0" index="0" allow="taxi evehicle" speed="13.89" length="7.86" width="1.50" shape="19.51,52.25 27.06,54.45"/>
    </edge>
    <edge id="gneE174" from="gneJ78" to="sz_14" priority="-1" type="highway.prt" shape="374.93,87.36 380.22,79.07 415.84,70.63">
        <lane id="gneE174_0" index="0" allow="taxi evehicle" speed="13.89" length="39.94" width="1.50" shape="376.16,84.04 379.75,78.41 412.11,70.74"/>
    </edge>
    <edge id="gneE177" from="gneJ78" to="gneJ15" priority="-1" type="highway.prt" shape="374.93,87.36 372.66,60.98 363.09,53.22">
        <lane id="gneE177_0" index="0" allow="taxi evehicle" speed="13.89" length="32.30" width="1.50" shape="373.84,83.47 371.94,61.36 364.09,54.99"/>
    </edge>
    <edge id="gneE179" from="gneJ93" to="gneJ121" priority="-1" type="highway.prt">
        <lane id="gneE179_0" index="0" allow="taxi evehicle" speed="13.89" length="1.49" width="1.50" shape="43.71,33.05 42.39,32.36"/>
    </edge>
    <edge id="gneE180" from="gneJ33" to="sz_25" priority="-1" type="highway.prt">
        <lane id="gneE180_0" index="0" allow="taxi evehicle" speed="13.89" length="71.10" width="1.50" shape="315.30,301.83 281.79,239.13"/>
    </edge>
    <edge id="gneE181" from="gneJ101" to="gneJ33" priority="-1" type="highway.prt">
        <lane id="gneE181_0" index="0" allow="taxi evehicle" speed="13.89" length="22.93" width="1.50" shape="327.52,280.01 318.51,301.10"/>
    </edge>
    <edge id="gneE182" from="gneJ101" to="sz_25" priority="-1" type="highway.prt">
        <lane id="gneE182_0" index="0" allow="taxi evehicle" speed="13.89" length="56.05" width="1.50" shape="325.91,274.35 283.37,237.86"/>
    </edge>
    <edge id="gneE183" from="sz_1" to="gneJ101" priority="-1" type="highway.prt" shape="482.43,170.03 468.61,223.83 453.24,286.07 452.37,288.07 451.44,289.95 450.44,291.61 449.37,293.04 448.16,294.36 446.95,295.46 445.61,296.45 444.19,297.22 442.71,297.76 441.16,298.19 439.47,298.39 437.71,298.49 435.95,298.36 434.05,298.12 432.08,297.66 401.44,286.24 378.01,279.01 345.66,276.92 328.57,275.64">
        <lane id="gneE183_0" index="0" allow="taxi evehicle" speed="13.89" length="248.82" width="1.50" shape="482.71,171.94 469.34,224.01 453.95,286.31 453.05,288.39 452.10,290.31 451.06,292.03 449.95,293.52 448.69,294.89 447.43,296.04 446.01,297.08 444.50,297.91 442.94,298.47 441.31,298.93 439.54,299.14 437.70,299.24 435.87,299.11 433.92,298.86 431.86,298.38 401.20,286.95 377.87,279.75 345.61,277.67 332.44,276.68"/>
    </edge>
    <edge id="gneE186" from="gneJ121" to="sz_135" priority="-1" type="highway.prt">
        <lane id="gneE186_0" index="0" allow="taxi evehicle" speed="13.89" length="18.56" width="1.50" shape="41.61,25.59 53.16,11.06"/>
    </edge>
    <edge id="gneE187" from="sz_135" to="sz_5" priority="-1" type="highway.prt" shape="56.28,8.34 63.92,19.31 78.98,33.80">
        <lane id="gneE187_0" index="0" allow="taxi evehicle" speed="13.89" length="26.55" width="1.50" shape="59.18,11.19 64.49,18.82 76.93,30.79"/>
    </edge>
    <edge id="gneE193" from="gneJ93" to="sz_5" priority="-1" type="highway.prt">
        <lane id="gneE193_0" index="0" allow="taxi evehicle" speed="13.89" length="22.37" width="1.50" shape="53.68,34.24 76.03,33.19"/>
    </edge>
    <edge id="gneE194" from="sz_5" to="gneJ15" priority="-1" type="highway.prt" shape="78.98,33.80 95.57,43.08 141.13,61.20 143.94,62.34 146.46,63.03 148.78,63.83 150.95,64.63 152.91,65.43 154.74,66.34 156.34,67.35 157.81,68.37 159.14,69.49 160.25,70.73 161.23,71.85 161.99,73.19 162.54,74.53 163.02,75.87 164.77,90.90 206.82,87.63 236.40,77.35 260.49,67.24 282.68,58.34 330.98,47.68 363.09,53.22">
        <lane id="gneE194_0" index="0" allow="taxi evehicle" speed="13.89" length="312.37" width="1.50" shape="80.66,33.88 95.89,42.40 141.41,60.50 144.18,61.63 146.68,62.31 149.03,63.12 151.22,63.93 153.22,64.75 155.11,65.69 156.75,66.72 158.27,67.77 159.66,68.95 160.81,70.23 161.84,71.41 162.67,72.86 163.24,74.26 163.76,75.70 165.43,90.10 206.67,86.89 236.13,76.65 260.21,66.55 282.46,57.62 330.96,46.92 361.35,52.16"/>
    </edge>
    <edge id="gneE197" from="gneJ118" to="gneJ129" priority="-1" type="highway.prt">
        <lane id="gneE197_0" index="0" allow="taxi evehicle" speed="13.89" length="3.12" width="1.50" shape="13.72,74.79 10.72,73.93"/>
    </edge>
    <edge id="gneE199" from="gneJ2" to="gneJ130" priority="-1" type="highway.prt">
        <lane id="gneE199_0" index="0" speed="13.89" length="1.01" width="1.50" shape="632.10,179.31 631.26,179.88"/>
    </edge>
    <edge id="gneE2" from="gneJ2" to="sz_3" priority="-1" type="highway.prt">
        <lane id="gneE2_0" index="0" allow="taxi evehicle" speed="13.89" length="21.96" width="1.50" shape="633.40,172.69 621.28,154.37"/>
    </edge>
    <edge id="gneE201" from="gneJ53" to="gneJ131" priority="-1" type="highway.prt">
        <lane id="gneE201_0" index="0" speed="13.89" length="2.68" width="1.50" shape="551.11,783.49 550.77,780.84"/>
    </edge>
    <edge id="gneE204" from="gneJ53" to="sz_55" priority="-1" type="highway.prt">
        <lane id="gneE204_0" index="0" speed="13.89" length="15.82" width="1.50" shape="556.46,787.67 572.19,785.94"/>
    </edge>
    <edge id="gneE210" from="gneJ6" to="gneJ0" priority="-1" type="highway.prt" shape="589.19,82.43 614.14,98.03 631.28,139.33">
        <lane id="gneE210_0" index="0" allow="taxi evehicle" speed="13.89" length="70.53" width="1.50" shape="590.35,82.27 614.74,97.52 630.75,136.09"/>
    </edge>
    <edge id="gneE24" from="sz_25" to="gneJ78" priority="-1" type="highway.prt" shape="279.79,233.80 271.35,218.48 259.54,195.35 259.43,192.79 259.45,190.45 259.75,188.23 260.19,186.01 260.92,184.02 261.78,182.02 262.85,180.25 264.14,178.49 279.09,167.40 322.06,148.24 375.30,136.97 374.93,87.36">
        <lane id="gneE24_0" index="0" allow="taxi evehicle" speed="13.89" length="228.29" width="1.50" shape="278.41,232.85 270.69,218.83 258.80,195.55 258.68,192.80 258.70,190.40 259.01,188.11 259.47,185.81 260.22,183.74 261.11,181.68 262.23,179.83 263.60,177.96 278.71,166.75 321.83,147.52 374.55,136.36 374.19,88.87"/>
    </edge>
    <edge id="gneE3" from="sz_3" to="gneJ0" priority="-1" type="highway.prt">
        <lane id="gneE3_0" index="0" allow="taxi evehicle" speed="13.89" length="11.91" width="1.50" shape="621.45,150.82 628.73,141.40"/>
    </edge>
    <edge id="gneE34" from="gneJ33" to="gneJ52" priority="-1" type="highway.prt" shape="316.84,303.11 339.26,349.25 345.39,363.77 349.20,377.15 391.46,386.90 404.29,392.14 468.01,416.89 474.05,476.78 482.67,538.47 492.68,594.95 546.98,611.82 581.85,635.96 625.36,684.20 643.71,707.85 658.64,735.68 663.81,761.42 664.42,777.44 658.62,816.98 569.81,826.01 566.66,809.97">
        <lane id="gneE34_0" index="0" allow="taxi evehicle" speed="13.89" length="798.47" width="1.50" shape="318.61,305.04 339.94,348.94 346.10,363.52 349.80,376.52 391.69,386.18 404.57,391.44 468.71,416.36 474.79,476.69 483.41,538.35 493.34,594.37 547.31,611.14 582.35,635.39 625.94,683.72 644.34,707.44 659.35,735.42 664.56,761.33 665.17,777.48 659.28,817.67 569.21,826.83 566.30,812.02"/>
    </edge>
    <edge id="gneE53" from="gneJ52" to="gneJ53" priority="-1" type="highway.prt">
        <lane id="gneE53_0" index="0" allow="taxi evehicle" speed="13.89" length="19.59" width="1.50" shape="565.04,808.89 554.17,792.59"/>
    </edge>
    <edge id="gneE56" from="sz_55" to="gneJ52" priority="-1" type="highway.prt">
        <lane id="gneE56_0" index="0" allow="taxi evehicle" speed="13.89" length="19.65" width="1.50" shape="575.46,790.24 568.09,808.45"/>
    </edge>
    <edge id="gneE62" from="gneJ15" to="gneJ93" priority="-1" type="highway.prt" shape="363.09,53.22 330.98,47.68 282.68,58.34 260.49,67.24 236.40,77.35 206.82,87.63 164.77,90.90 163.02,75.87 162.54,74.53 161.99,73.19 161.23,71.85 160.25,70.73 159.14,69.49 157.81,68.37 156.34,67.35 154.74,66.34 152.91,65.43 150.95,64.63 148.78,63.83 146.46,63.03 143.94,62.34 141.13,61.20 95.57,43.08 79.18,34.25 49.48,35.19">