<?xml version="1.0" encoding="UTF-8"?>
<!-- generated on 2022-03-10 08:05:36.044299 by netdiff.py v1_11_0+0960-9a7789007a4
  options: osm_edited.net.xml.gz joined.net.xml diff
-->
<connections version="1.9" xmlns:xsi="http://www.w3.org/2001/XMLSchema-instance" xsi:noNamespaceSchemaLocation="http://sumo.dlr.de/xsd/connections_file.xsd">
    <!-- Deleted Elements -->
    <!-- Created Elements -->
    <connection from="-prtE10" fromLane="0" to="prtE11" toLane="0" />
    <connection from="-prtE21" fromLane="0" to="prtE26" toLane="0" />
    <connection from="-prtE22" fromLane="0" to="-prtE21" toLane="0" />
    <connection from="-prtE23" fromLane="0" to="-prtE22" toLane="0" />
    <connection from="-prtE24" fromLane="0" to="-prtE23" toLane="0" />
    <connection from="-prtE3" fromLane="0" to="prtE0" toLane="0" />
    <connection from="-prtE36" fromLane="0" to="prtE40" toLane="0" />
    <connection from="-prtE36" fromLane="0" to="prtE38" toLane="0" />
    <connection from="-prtE37" fromLane="0" to="-prtE36" toLane="0" />
    <connection from="-prtE4" fromLane="0" to="-prtE3" toLane="0" />
    <connection from="-prtE43" fromLane="0" to="prtE44" toLane="0" />
    <connection from="-prtE5" fromLane="0" to="-prtE4" toLane="0" />
    <connection from="-prtE6" fromLane="0" to="-prtE5" toLane="0" />
    <connection from="Depot" fromLane="0" to="prtE14" toLane="0" />
    <connection from="Hospital" fromLane="1" to="prtE99" toLane="0" />
    <connection from="Hospital_arrival" fromLane="1" to="Hospital" toLane="1" />
    <connection from="Hotel" fromLane="1" to="prtE2" toLane="0" />
    <connection from="Hotel_arrival" fromLane="1" to="Hotel" toLane="1" />
    <connection from="Pnord" fromLane="1" to="prtE59" toLane="0" />
    <connection from="Pnord_arrival" fromLane="1" to="Pnord" toLane="1" />
    <connection from="Station" fromLane="1" to="prtE96" toLane="0" />
    <connection from="Station_arrival" fromLane="1" to="Station" toLane="1" />
    <connection from="prtE0" fromLane="0" to="prtE1" toLane="0" />
    <connection from="prtE1" fromLane="0" to="Hotel_arrival" toLane="1" />
    <connection from="prtE10" fromLane="0" to="prtE15" toLane="0" />
    <connection from="prtE11" fromLane="0" to="-prtE6" toLane="0" />
    <connection from="prtE12" fromLane="0" to="Depot" toLane="0" />
    <connection from="prtE13" fromLane="0" to="prtE74" toLane="0" />
    <connection from="prtE14" fromLane="0" to="prtE6" toLane="0" />
    <connection from="prtE15" fromLane="0" to="prtE29" toLane="0" />
    <connection from="prtE19" fromLane="0" to="prtE27" toLane="0" />
    <connection from="prtE199" fromLane="1" to="Station_arrival" toLane="1" />
    <connection from="prtE2" fromLane="0" to="prtE3" toLane="0" />
    <connection from="prtE20" fromLane="0" to="prtE21" toLane="0" />
    <connection from="prtE201" fromLane="1" to="Hospital_arrival" toLane="1" />
    <connection from="prtE21" fromLane="0" to="prtE22" toLane="0" />
    <connection from="prtE22" fromLane="0" to="prtE23" toLane="0" />
    <connection from="prtE23" fromLane="0" to="prtE24" toLane="0" />
    <connection from="prtE24" fromLane="0" to="prtE25" toLane="0" />
    <connection from="prtE25" fromLane="0" to="prtE199" toLane="1" />
    <connection from="prtE26" fromLane="0" to="prtE27" toLane="0" />
    <connection from="prtE27" fromLane="0" to="prtE28" toLane="0" />
    <connection from="prtE28" fromLane="0" to="prtE29" toLane="0" />
    <connection from="prtE29" fromLane="0" to="prtE30" toLane="0" />
    <connection from="prtE3" fromLane="0" to="prtE4" toLane="0" />
    <connection from="prtE30" fromLane="0" to="prtE31" toLane="0" />
    <connection from="prtE31" fromLane="0" to="prtE32" toLane="0" />
    <connection from="prtE32" fromLane="0" to="prtE33" toLane="0" />
    <connection from="prtE33" fromLane="0" to="prtE34" toLane="0" />
    <connection from="prtE34" fromLane="0" to="prtE35" toLane="0" />
    <connection from="prtE35" fromLane="0" to="prtE36" toLane="0" />
    <connection from="prtE36" fromLane="0" to="prtE37" toLane="1" />
    <connection from="prtE37" fromLane="1" to="prtE201" toLane="1" />
    <connection from="prtE38" fromLane="0" to="prtE39" toLane="0" />
    <connection from="prtE39" fromLane="0" to="-prtE43" toLane="0" />
    <connection from="prtE4" fromLane="0" to="prtE12" toLane="0" />
    <connection from="prtE4" fromLane="0" to="prtE5" toLane="0" />
    <connection from="prtE40" fromLane="0" to="prtE41" toLane="0" />
    <connection from="prtE41" fromLane="0" to="prtE72" toLane="0" />
    <connection from="prtE42" fromLane="0" to="prtE36" toLane="0" />
    <connection from="prtE43" fromLane="0" to="prtE42" toLane="0" />
    <connection from="prtE44" fromLane="0" to="prtE45" toLane="0" />
    <connection from="prtE45" fromLane="0" to="prtE46" toLane="0" />
    <connection from="prtE46" fromLane="0" to="prtE47" toLane="0" />
    <connection from="prtE47" fromLane="0" to="prtE48" toLane="0" />
    <connection from="prtE48" fromLane="0" to="prtE49" toLane="0" />
    <connection from="prtE49" fromLane="0" to="prtE50" toLane="0" />
    <connection from="prtE5" fromLane="0" to="prtE6" toLane="0" />
    <connection from="prtE50" fromLane="0" to="prtE51" toLane="0" />
    <connection from="prtE51" fromLane="0" to="prtE52" toLane="0" />
    <connection from="prtE52" fromLane="0" to="prtE53" toLane="0" />
    <connection from="prtE53" fromLane="0" to="prtE54" toLane="0" />
    <connection from="prtE54" fromLane="0" to="prtE55" toLane="0" />
    <connection from="prtE55" fromLane="0" to="prtE56" toLane="0" />
    <connection from="prtE56" fromLane="0" to="Pnord_arrival" toLane="1" />
    <connection from="prtE58" fromLane="0" to="prtE73" toLane="0" />
    <connection from="prtE59" fromLane="0" to="prtE60" toLane="0" />
    <connection from="prtE6" fromLane="0" to="prtE7" toLane="0" />
    <connection from="prtE6" fromLane="0" to="prtE9" toLane="0" />
    <connection from="prtE60" fromLane="0" to="prtE61" toLane="0" />
    <connection from="prtE61" fromLane="0" to="prtE62" toLane="0" />
    <connection from="prtE62" fromLane="0" to="prtE63" toLane="0" />
    <connection from="prtE63" fromLane="0" to="prtE64" toLane="0" />
    <connection from="prtE64" fromLane="0" to="prtE65" toLane="0" />
    <connection from="prtE65" fromLane="0" to="prtE66" toLane="0" />
    <connection from="prtE66" fromLane="0" to="prtE67" toLane="0" />
    <connection from="prtE67" fromLane="0" to="prtE43" toLane="0" />
    <connection from="prtE7" fromLane="0" to="prtE8" toLane="0" />
    <connection from="prtE72" fromLane="0" to="prtE13" toLane="0" />
    <connection from="prtE73" fromLane="0" to="prtE76" toLane="0" />
    <connection from="prtE74" fromLane="0" to="prtE75" toLane="0" />
    <connection from="prtE75" fromLane="0" to="prtE58" toLane="0" />
    <connection from="prtE76" fromLane="0" to="-prtE10" toLane="0" />
    <connection from="prtE78" fromLane="0" to="-prtE37" toLane="0" />
    <connection from="prtE78" fromLane="0" to="prtE201" toLane="1" />
    <connection from="prtE8" fromLane="0" to="prtE10" toLane="0" />
    <connection from="prtE9" fromLane="0" to="prtE20" toLane="0" />
    <connection from="prtE9" fromLane="0" to="prtE19" toLane="0" />
    <connection from="prtE96" fromLane="0" to="-prtE24" toLane="0" />
    <connection from="prtE99" fromLane="0" to="prtE78" toLane="0" />
    <!-- Changed Elements -->
</connections>
