<?xml version="1.0" encoding="UTF-8"?>

<!-- generated on 2021-12-20 16:18:51 by Eclipse SUMO netconvert Version 1.10.0
<configuration xmlns:xsi="http://www.w3.org/2001/XMLSchema-instance" xsi:noNamespaceSchemaLocation="http://sumo.dlr.de/xsd/netconvertConfiguration.xsd">

    <input>
        <sumo-net-file value="../osm/osm.net.xml"/>
    </input>

    <output>
        <plain-output-prefix value="../osm/osm"/>
        <output.street-names value="true"/>
    </output>

    <processing>
        <geometry.min-radius.fix.railways value="false"/>
        <geometry.max-grade.fix value="false"/>
        <offset.disable-normalization value="true"/>
        <roundabouts.guess value="false"/>
        <lefthand value="false"/>
    </processing>

    <junctions>
        <no-turnarounds value="true"/>
        <junctions.corner-detail value="5"/>
        <junctions.limit-turn-speed value="5.5"/>
        <rectangular-lane-cut value="false"/>
    </junctions>

    <pedestrian>
        <walkingareas value="false"/>
    </pedestrian>

    <report>
        <aggregate-warnings value="5"/>
    </report>

</configuration>
-->

<tlLogics version="1.9" xmlns:xsi="http://www.w3.org/2001/XMLSchema-instance" xsi:noNamespaceSchemaLocation="http://sumo.dlr.de/xsd/tllogic_file.xsd">
    <tlLogic id="1207767966" type="actuated" programID="0" offset="0">
        <phase duration="82" state="GgGg" minDur="5" maxDur="50"/>
        <phase duration="3"  state="yyyy"/>
        <phase duration="5"  state="rrrr"/>
    </tlLogic>
    <tlLogic id="8989141951" type="actuated" programID="0" offset="0">
        <phase duration="82" state="G" minDur="5" maxDur="50"/>
        <phase duration="3"  state="y"/>
        <phase duration="5"  state="r"/>
    </tlLogic>
    <tlLogic id="GS_cluster_1672439092_1672439108" type="actuated" programID="0" offset="0">
        <phase duration="35" state="GGrrrGG" minDur="8" maxDur="50"/>
        <phase duration="5"  state="yyrrryy"/>
        <phase duration="6"  state="GGGGrrr" minDur="8" maxDur="50"/>
        <phase duration="5"  state="yyyyrrr"/>
        <phase duration="34" state="rrrGGrr" minDur="10" maxDur="50"/>
        <phase duration="5"  state="rrryyrr"/>
    </tlLogic>
    <tlLogic id="GS_cluster_1719477035_1719477040_286944637_286944638" type="actuated" programID="0" offset="0">
        <phase duration="27" state="GGrrrrrrGGggrrrr" minDur="13" maxDur="50"/>
        <phase duration="6"  state="yyrrrrrryyggrrrr"/>
        <phase duration="6"  state="rrGGrrrrrrGGrrrr" minDur="13" maxDur="50"/>
        <phase duration="6"  state="rryyrrrrrryyrrrr"/>
        <phase duration="27" state="rrrrGGggrrrrGGgg" minDur="5" maxDur="50"/>
        <phase duration="6"  state="rrrryyggrrrryygg"/>
        <phase duration="6"  state="rrrrrrGGrrrrrrGG" minDur="5" maxDur="50"/>
        <phase duration="6"  state="rrrrrryyrrrrrryy"/>
    </tlLogic>
    <tlLogic id="GS_cluster_2517924762_2517924766_76471700_76471702" type="actuated" programID="0" offset="0">
        <phase duration="29" state="rrrrGGGrrrrrrGGgg" minDur="8" maxDur="50"/>
        <phase duration="5"  state="rrrryyyrrrrrryygg"/>
        <phase duration="6"  state="rrrrrrrGGrrrrrrGG" minDur="8" maxDur="50"/>
        <phase duration="5"  state="rrrrrrryyrrrrrryy"/>
        <phase duration="29" state="GGggrrrrrGGrrrrrr" minDur="10" maxDur="50"/>
        <phase duration="5"  state="yyggrrrrryyrrrrrr"/>
        <phase duration="6"  state="rrGGrrrrrrrGGrrrr" minDur="10" maxDur="50"/>
        <phase duration="5"  state="rryyrrrrrrryyrrrr"/>
    </tlLogic>
    <tlLogic id="GS_cluster_267198458_267198459" type="actuated" programID="0" offset="0">
        <phase duration="35" state="GGrrrrrrGG" minDur="8" maxDur="50"/>
        <phase duration="5"  state="yyrrrrrryy"/>
        <phase duration="6"  state="GGGGrrrrrr" minDur="8" maxDur="50"/>
        <phase duration="5"  state="yyyyrrrrrr"/>
        <phase duration="34" state="rrrrGGGGrr" minDur="5" maxDur="50"/>
        <phase duration="5"  state="rrrryyyyrr"/>
    </tlLogic>
    <tlLogic id="cluster_1205630581_2015016940_2015016941" type="actuated" programID="0" offset="0">
        <phase duration="18" state="GrrrrrrrrrrrGGGGg" minDur="5" maxDur="50"/>
        <phase duration="3"  state="yrrrrrrrrrrryyyyy"/>
        <phase duration="20" state="rrrrGGGgGrrrrrrrr" minDur="5" maxDur="50"/>
        <phase duration="3"  state="rrrryyyyyrrrrrrrr"/>
        <phase duration="20" state="GGGgGrrrrrrrrrrrr" minDur="5" maxDur="50"/>
        <phase duration="3"  state="yyyyyrrrrrrrrrrrr"/>
        <phase duration="20" state="rrrrrrrrGGGgGrrrr" minDur="5" maxDur="50"/>
        <phase duration="3"  state="rrrrrrrryyyyyrrrr"/>
    </tlLogic>
    <tlLogic id="cluster_1205630662_1207289208_1423165912_4406635032_8369732650" type="actuated" programID="0" offset="0">
        <phase duration="15" state="ggGGgggrrrrrrrrrrrrrrgGGggggrrrrrrrrrrrrrrrrrrrrr" minDur="5" maxDur="50"/>
        <phase duration="3"  state="ggyygggrrrrrrrrrrrrrrgyyggggrrrrrrrrrrrrrrrrrrrrr"/>
        <phase duration="6"  state="ggrrGGGrrrrrrrrrrrrrrgrrGgGGrrrrrrrrrrrrrrrrrrrrr" minDur="5" maxDur="50"/>
        <phase duration="3"  state="yyrryyyrrrrrrrrrrrrrryrryyyyrrrrrrrrrrrrrrrrrrrrr"/>
        <phase duration="18" state="rrrrrrrrrrrrrrGGGggggrrrrrrrrrrrrrrrrrrrrrGGGGggg" minDur="5" maxDur="50"/>
        <phase duration="3"  state="rrrrrrrrrrrrrryyyyyyyrrrrrrrrrrrrrrrrrrrrryyyyyyy"/>
        <phase duration="18" state="rrrrrrrgggGgggrrrrrrrrrrrrrrggGggggrrrrrrrrrrrrrr" minDur="5" maxDur="50"/>
        <phase duration="3"  state="rrrrrrryyyyyyyrrrrrrrrrrrrrryyyyyyyrrrrrrrrrrrrrr"/>
        <phase duration="18" state="rrrrrrrrrrrrrrrrrrrrrrrrrrrrrrrrrrrGGGGGGgGrrrrrr" minDur="5" maxDur="50"/>
        <phase duration="3"  state="rrrrrrrrrrrrrrrrrrrrrrrrrrrrrrrrrrryyyyyyyyrrrrrr"/>
    </tlLogic>
    <tlLogic id="cluster_1423165961_1423165962_259997109_259997110_2834788801_3150602447_451791043_451791046" type="actuated" programID="0" offset="0">
        <phase duration="12" state="GrrrrGrrrrrrrrrrrrrrrrrGGGGrrrrrr" minDur="5" maxDur="50"/>
        <phase duration="3"  state="yrrrryrrrrrrrrrrrrrrrrryyyyrrrrrr"/>
        <phase duration="12" state="rrrrrrrrrrrrrrrrrrrrGggrrrrGGgGGG" minDur="5" maxDur="50"/>
        <phase duration="3"  state="rrrrrrrrrrrrrrrrrrrryyyrrrryyyyyy"/>
        <phase duration="12" state="GrrrGGrrrrrrrrrrrGGGrrrrrrrrrrrrr" minDur="5" maxDur="50"/>
        <phase duration="3"  state="yrrryyrrrrrrrrrrryyyrrrrrrrrrrrrr"/>
        <phase duration="12" state="rrrrrGrrrrrrGGGGGrrrrrrrrrrrrrrrr" minDur="5" maxDur="50"/>
        <phase duration="3"  state="rrrrryrrrrrryyyyyrrrrrrrrrrrrrrrr"/>
        <phase duration="12" state="GGGGGGrrrrrrrrrrrrrrrrrrrrrrrrrrr" minDur="5" maxDur="50"/>
        <phase duration="3"  state="yyyyyyrrrrrrrrrrrrrrrrrrrrrrrrrrr"/>
        <phase duration="12" state="rrrrrrGGGGGGrrrrrrrrrrrrrrrrrrrrr" minDur="5" maxDur="50"/>
        <phase duration="3"  state="rrrrrryyyyyyrrrrrrrrrrrrrrrrrrrrr"/>
    </tlLogic>
    <tlLogic id="cluster_1423165972_1423165975_1720196179_1720196181_2701491282_5894881728_5894881729" type="actuated" programID="0" offset="0">
        <phase duration="27" state="GGGggrrrrrrrrrrGGgggrrrrrrrrrr" minDur="5" maxDur="50"/>
        <phase duration="3"  state="yyyyyrrrrrrrrrryyyyyrrrrrrrrrr"/>
        <phase duration="27" state="rrrrrrrrrrGGgggrrrrrrrrrrGGGgg" minDur="5" maxDur="50"/>
        <phase duration="3"  state="rrrrrrrrrryyyyyrrrrrrrrrryyyyy"/>
        <phase duration="27" state="rrrrrGGgggrrrrrrrrrrGGGggrrrrr" minDur="5" maxDur="50"/>
        <phase duration="3"  state="rrrrryyyyyrrrrrrrrrryyyyyrrrrr"/>
    </tlLogic>
    <tlLogic id="cluster_1423165998_1698047149_1698047152_1698047183" type="actuated" programID="0" offset="0">
        <phase duration="27" state="rrGGGGrrrrrrrrrGGggg" minDur="5" maxDur="50"/>
        <phase duration="3"  state="rryyyyrrrrrrrrryyyyy"/>
        <phase duration="27" state="GGrrrrrrrrGGgGgrrrrr" minDur="5" maxDur="50"/>
        <phase duration="3"  state="yyrrrrrrrryyyyyrrrrr"/>
        <phase duration="27" state="rrrrrGGGGGrrrrrrrrrr" minDur="5" maxDur="50"/>
        <phase duration="3"  state="rrrrryyyyyrrrrrrrrrr"/>
    </tlLogic>
    <tlLogic id="cluster_1423166044_2482880334_2482880338_2701491285_2701491287_2701491288_3105811954_338474034_3587379558_8358711549_8360978011" type="actuated" programID="0" offset="0">
        <phase duration="18" state="ggGGGgggrrrrrrrrrrrrrrGGGggggrrrrrrrrrrrrrrrrrrrrr" minDur="5" maxDur="50"/>
        <phase duration="3"  state="yyyyyyyyrrrrrrrrrrrrrryyyyyyyrrrrrrrrrrrrrrrrrrrrr"/>
        <phase duration="20" state="rrrrrrrrrrrrrrrGGGGgggrrrrrrrGGggggGrrrrrrrrrrrrrr" minDur="5" maxDur="50"/>
        <phase duration="3"  state="rrrrrrrrrrrrrrryyyyyyyrrrrrrryyyyyyyrrrrrrrrrrrrrr"/>
        <phase duration="20" state="rrrrrrrrGGGggggrrrrrrrrrrrrrrrrrrrrrrrrrrrrGGGGggg" minDur="5" maxDur="50"/>
        <phase duration="3"  state="rrrrrrrryyyyyyyrrrrrrrrrrrrrrrrrrrrrrrrrrrryyyyyyy"/>
        <phase duration="20" state="rrrrrrrrrrrrrrrrrrrrrrrrrrrrrrrrrrrrGGGGGGgGrrrrrr" minDur="5" maxDur="50"/>
        <phase duration="3"  state="rrrrrrrrrrrrrrrrrrrrrrrrrrrrrrrrrrrryyyyyyyyrrrrrr"/>
    </tlLogic>
    <tlLogic id="cluster_1698047100_4406635056_5846632473_5956160360" type="actuated" programID="0" offset="0">
        <phase duration="18" state="rrrrrrrrGGGgGGrrrr" minDur="5" maxDur="50"/>
        <phase duration="3"  state="rrrrrrrryyyyyyrrrr"/>
        <phase duration="20" state="GrrrrrrrrrrrrrGGGg" minDur="5" maxDur="50"/>
        <phase duration="3"  state="yrrrrrrrrrrrrryyyy"/>
        <phase duration="20" state="rrrrGGGGrrrrrrrrrr" minDur="5" maxDur="50"/>
        <phase duration="3"  state="rrrryyyyrrrrrrrrrr"/>
        <phase duration="20" state="GGGGrrrrrrrrrrrrrr" minDur="5" maxDur="50"/>
        <phase duration="3"  state="yyyyrrrrrrrrrrrrrr"/>
    </tlLogic>
    <tlLogic id="cluster_1719495812_259997081_301598371_752052885_769123046_769123048" type="actuated" programID="0" offset="0">
        <phase duration="21" state="rrGGgggrrrrrrrrrrrrgGGgggrrrrrr" minDur="5" maxDur="50"/>
        <phase duration="3"  state="rryygggrrrrrrrrrrrrgyygggrrrrrr"/>
        <phase duration="6"  state="rrrrGGGrrrrrrrrrrrrgrrGGGrrrrrr" minDur="5" maxDur="50"/>
        <phase duration="3"  state="rrrryyyrrrrrrrrrrrryrryyyrrrrrr"/>
        <phase duration="21" state="rrrrrrrrrrrrrGGGGggrrrrrrGGgggg" minDur="5" maxDur="50"/>
        <phase duration="3"  state="rrrrrrrrrrrrryyyyyyrrrrrryyyyyy"/>
        <phase duration="21" state="ggrrrrrGGGGGgGrrrrrrrrrrrrrrrrr" minDur="5" maxDur="50"/>
        <phase duration="3"  state="ggrrrrryyyyyyyrrrrrrrrrrrrrrrrr"/>
        <phase duration="6"  state="GGrrrrrrrrrrrrrrrrrrrrrrrrrrrrr" minDur="5" maxDur="50"/>
        <phase duration="3"  state="yyrrrrrrrrrrrrrrrrrrrrrrrrrrrrr"/>
    </tlLogic>
    <tlLogic id="cluster_1888550163_420546421_637033720" type="actuated" programID="0" offset="0">
        <phase duration="42" state="GggrrrGGg" minDur="5" maxDur="50"/>
        <phase duration="3"  state="yyyrrryyy"/>
        <phase duration="42" state="rrrGGgGrr" minDur="5" maxDur="50"/>
        <phase duration="3"  state="rrryyyyrr"/>
    </tlLogic>
    <tlLogic id="cluster_1916384349_1916384352_1916384356_248191547_2701491286_2701491289_3806250286" type="actuated" programID="0" offset="0">
        <phase duration="24" state="rrrGGgGrrrrrrrGggrrr" minDur="5" maxDur="50"/>
        <phase duration="3"  state="rrryyyyrrrrrrryyyrrr"/>
        <phase duration="24" state="GGgrrrrrrrGGggrrrrrr" minDur="5" maxDur="50"/>
        <phase duration="3"  state="yyyrrrrrrryyyyrrrrrr"/>
        <phase duration="24" state="rrrrrrGGGgrrrrrrrGgg" minDur="5" maxDur="50"/>
        <phase duration="3"  state="rrrrrryyygrrrrrrrygg"/>
        <phase duration="6"  state="rrrrrrrrrGrrrrrrrrGG" minDur="5" maxDur="50"/>
        <phase duration="3"  state="rrrrrrrrryrrrrrrrryy"/>
    </tlLogic>
    <tlLogic id="cluster_3089068466_338474022" type="actuated" programID="0" offset="0">
        <phase duration="27" state="rrrrGGGgGrrr" minDur="5" maxDur="50"/>
        <phase duration="3"  state="rrrryyyyyrrr"/>
        <phase duration="27" state="GrrrrrrrGGGg" minDur="5" maxDur="50"/>
        <phase duration="3"  state="yrrrrrrryyyy"/>
        <phase duration="27" state="GGGGrrrrrrrr" minDur="5" maxDur="50"/>
        <phase duration="3"  state="yyyyrrrrrrrr"/>
    </tlLogic>
    <tlLogic id="joinedS_0" type="actuated" programID="0" offset="0">
        <phase duration="9"  state="GgggGrgrGgggGrgrGrgrGgggGrgrGgggGgggGrgrGgggGrgr" minDur="5" maxDur="50"/>
        <phase duration="3"  state="yyyyyryryyyyyryryryryyyyyryryyyyyyyyyryryyyyyryr"/>
        <phase duration="10" state="rrrrGGGGrrrrrrrrrrrrrrrrrrrrrrrrrrrrrrrrrrrrrrrr" minDur="5" maxDur="50"/>
        <phase duration="3"  state="rrrryyyyrrrrrrrrrrrrrrrrrrrrrrrrrrrrrrrrrrrrrrrr"/>
        <phase duration="10" state="rrrrrrrrrrrrGGGGrrrrrrrrrrrrrrrrrrrrrrrrrrrrrrrr" minDur="5" maxDur="50"/>
        <phase duration="3"  state="rrrrrrrrrrrryyyyrrrrrrrrrrrrrrrrrrrrrrrrrrrrrrrr"/>
        <phase duration="10" state="rrrrrrrrrrrrrrrrGGGGrrrrrrrrrrrrrrrrrrrrrrrrrrrr" minDur="5" maxDur="50"/>
        <phase duration="3"  state="rrrrrrrrrrrrrrrryyyyrrrrrrrrrrrrrrrrrrrrrrrrrrrr"/>
        <phase duration="10" state="rrrrrrrrrrrrrrrrrrrrrrrrGGGGrrrrrrrrrrrrrrrrrrrr" minDur="5" maxDur="50"/>
        <phase duration="3"  state="rrrrrrrrrrrrrrrrrrrrrrrryyyyrrrrrrrrrrrrrrrrrrrr"/>
        <phase duration="10" state="rrrrrrrrrrrrrrrrrrrrrrrrrrrrrrrrrrrrGGGGrrrrrrrr" minDur="5" maxDur="50"/>
        <phase duration="3"  state="rrrrrrrrrrrrrrrrrrrrrrrrrrrrrrrrrrrryyyyrrrrrrrr"/>
        <phase duration="10" state="rrrrrrrrrrrrrrrrrrrrrrrrrrrrrrrrrrrrrrrrrrrrGGGG" minDur="5" maxDur="50"/>
        <phase duration="3"  state="rrrrrrrrrrrrrrrrrrrrrrrrrrrrrrrrrrrrrrrrrrrryyyy"/>
    </tlLogic>
    <tlLogic id="joinedS_1" type="actuated" programID="0" offset="0">
        <phase duration="9"  state="GGGrrrrrrrrrrrrrrrrrrrrrrGGGGgGrrrrrrrrrrrrrrrGGGg" minDur="5" maxDur="50"/>
        <phase duration="3"  state="yyyrrrrrrrrrrrrrrrrrrrrrryyyyyyrrrrrrrrrrrrrrryyyy"/>
        <phase duration="10" state="rGGrrrrrrrrrrrrrrrrrrGGGGGrrrrGGGgGrrrrrrrrrrrrrrr" minDur="5" maxDur="50"/>
        <phase duration="3"  state="ryyrrrrrrrrrrrrrrrrrryyyyyrrrryyyyyrrrrrrrrrrrrrrr"/>
        <phase duration="10" state="rrrrrrGGGGGGgGrrrrrrrrrrrrrrrrrrrrrrrrGGGGrrrrrrrr" minDur="5" maxDur="50"/>
        <phase duration="3"  state="rrrrrryyyyyyyyrrrrrrrrrrrrrrrrrrrrrrrryyyyrrrrrrrr"/>
        <phase duration="10" state="GGGrrrrrrGrrrGGGgrrrrrrrrrrrrrrrrrrrrrrrrrGGGgGrrr" minDur="5" maxDur="50"/>
        <phase duration="3"  state="yyyrrrrrryrrryyyyrrrrrrrrrrrrrrrrrrrrrrrrryyyyyrrr"/>
        <phase duration="10" state="GGGrrrrrrrrrrrrrrGGGgGrrrrrrrrrrrrGGGgGrrrrrrrrrrr" minDur="5" maxDur="50"/>
        <phase duration="3"  state="yyyrrrrrrrrrrrrrryyyyyrrrrrrrrrrrryyyyyrrrrrrrrrrr"/>
        <phase duration="10" state="rrrGGGrrrGGGgGrrrrrrrrrrrrrrrrGGGgGrrrrrrrrrrrrrrr" minDur="5" maxDur="50"/>
        <phase duration="3"  state="rrryyyrrryyyyyrrrrrrrrrrrrrrrryyyyyrrrrrrrrrrrrrrr"/>
        <phase duration="10" state="GGGrrrrrrGGGgGrrrrrrrrrrrrrrrrGGGgGrrrrrrrrrrrrrrr" minDur="5" maxDur="50"/>
        <phase duration="3"  state="yyyrrrrrryyyyyrrrrrrrrrrrrrrrryyyyyrrrrrrrrrrrrrrr"/>
    </tlLogic>
    <tlLogic id="joinedS_2" type="actuated" programID="0" offset="0">
        <phase duration="6"  state="gggGggGrGGrrrgGGGgrGrrGGgGgrGggggggggGGrGrrgrGrrGggggggGGrgggggGGgggggg" minDur="5" maxDur="50"/>
        <phase duration="3"  state="yyyyyyyryyrrryyyyyryrryyyyyryyyyyyyyyyyryrryryrryyyyyyyyyryyyyyyyyyyyyy"/>
        <phase duration="6"  state="gggrrrGGGrrrrGGGrrrrrrrGGrrrrGgggGGGgrrrrrrrrrrrrrrrrrrrrrrGGGGrrrrrrrr" minDur="5" maxDur="50"/>
        <phase duration="3"  state="yyyrrryyyrrrryyyrrrrrrryyrrrryyyyyyyyrrrrrrrrrrrrrrrrrrrrrryyyyrrrrrrrr"/>
        <phase duration="6"  state="rrrrrrrrrGGGGrrrrrrrrrrrrrrrrrrrrrrrrrrrrrrrrrrrrrrrrrrrrrrrrrrrrrrrrrr" minDur="5" maxDur="50"/>
        <phase duration="3"  state="rrrrrrrrryyyyrrrrrrrrrrrrrrrrrrrrrrrrrrrrrrrrrrrrrrrrrrrrrrrrrrrrrrrrrr"/>
        <phase duration="6"  state="GGGrrrrrrrrrrGGGrrGGrrrGGrrrrGgggGGGgrrrrrrrrrrrrrrGGGGrrrrggggrrrrrrrr" minDur="5" maxDur="50"/>
        <phase duration="3"  state="yyyrrrrrrrrrryyyrryyrrryyrrrryyyyyyyyrrrrrrrrrrrrrryyyyrrrryyyyrrrrrrrr"/>
        <phase duration="6"  state="rrrrrrrrrrrrrGGGrrrrGGGrrrrrrrrrrrrrrrrrrrrrrrrrrrrrrrrrrrrrrrrrrrrrrrr" minDur="5" maxDur="50"/>
        <phase duration="3"  state="rrrrrrrrrrrrryyyrrrryyyrrrrrrrrrrrrrrrrrrrrrrrrrrrrrrrrrrrrrrrrrrrrrrrr"/>
        <phase duration="6"  state="rrrrrrrrrrrrrrrrrrrrrrrrrrrGGrrrrrrrrrrrrrrrrrrrrrrrrrrrrrrrrrrrrrrrrrr" minDur="5" maxDur="50"/>
        <phase duration="3"  state="rrrrrrrrrrrrrrrrrrrrrrrrrrryyrrrrrrrrrrrrrrrrrrrrrrrrrrrrrrrrrrrrrrrrrr"/>
        <phase duration="6"  state="GGGrrrrrrrrrrGGGrrrrrrrGGrrrrggggggggGGGGrrrrrrrrrrrrrrrrrrGGGGrrrrrrrr" minDur="5" maxDur="50"/>
        <phase duration="3"  state="yyyrrrrrrrrrryyyrrrrrrryyrrrryyyyyyyyyyyyrrrrrrrrrrrrrrrrrryyyyrrrrrrrr"/>
        <phase duration="6"  state="rrrrrrrrrrrrrrrrrrrrrrrrrrrrrrrrrrrrrrrrrGGGGrrrrrrrrrrrrrrrrrrrrrrrrrr" minDur="5" maxDur="50"/>
        <phase duration="3"  state="rrrrrrrrrrrrrrrrrrrrrrrrrrrrrrrrrrrrrrrrryyyyrrrrrrrrrrrrrrrrrrrrrrrrrr"/>
        <phase duration="6"  state="rrrrrrrrrrrrrrrrrrrrrrrrrrrrrrrrrrrrrrrrrrrrrGGGrrrrrrrrrrrrrrrrrrrrrrr" minDur="5" maxDur="50"/>
        <phase duration="3"  state="rrrrrrrrrrrrrrrrrrrrrrrrrrrrrrrrrrrrrrrrrrrrryyyrrrrrrrrrrrrrrrrrrrrrrr"/>
        <phase duration="6"  state="GGGrrrrrrrrrrGGGrrrrrrrGGrrrrGgggGGGgrrrrrrrrrrrrrrrrrrGGGGggggrrrrrrrr" minDur="5" maxDur="50"/>
        <phase duration="3"  state="yyyrrrrrrrrrryyyrrrrrrryyrrrryyyyyyyyrrrrrrrrrrrrrrrrrryyyyyyyyrrrrrrrr"/>
    </tlLogic>

    <connection from="-101371626#3" to="-443014117#6" fromLane="0" toLane="0" tl="cluster_1205630662_1207289208_1423165912_4406635032_8369732650" linkIndex="21"/>
    <connection from="-101371626#3" to="443014117#7" fromLane="0" toLane="0" tl="cluster_1205630662_1207289208_1423165912_4406635032_8369732650" linkIndex="22"/>
    <connection from="-101371626#3" to="-101371626#1" fromLane="0" toLane="0" tl="cluster_1205630662_1207289208_1423165912_4406635032_8369732650" linkIndex="23"/>
    <connection from="-101371626#3" to="-197638009#1" fromLane="0" toLane="0" tl="cluster_1205630662_1207289208_1423165912_4406635032_8369732650" linkIndex="24"/>
    <connection from="-101371626#3" to="-85131428#1" fromLane="1" toLane="0" tl="cluster_1205630662_1207289208_1423165912_4406635032_8369732650" linkIndex="25"/>
    <connection from="-101371626#3" to="197638009#3" fromLane="1" toLane="0" tl="cluster_1205630662_1207289208_1423165912_4406635032_8369732650" linkIndex="26"/>
    <connection from="-101371626#3" to="101371626#3" fromLane="1" toLane="1" tl="cluster_1205630662_1207289208_1423165912_4406635032_8369732650" linkIndex="27"/>
    <connection from="-105014790#1" to="-105014790#0" fromLane="0" toLane="0" tl="1243200314" linkIndex="0"/>
    <connection from="-126866126#0" to="-900157907#0" fromLane="0" toLane="0" tl="1405223222" linkIndex="1"/>
    <connection from="-126992227#1" to="-126992227#0" fromLane="0" toLane="0" tl="6221987437" linkIndex="1"/>
    <connection from="-127993283" to="33140246" fromLane="0" toLane="0" tl="cluster_1719495812_259997081_301598371_752052885_769123046_769123048" linkIndex="7"/>
    <connection from="-127993283" to="127435977" fromLane="0" toLane="0" tl="cluster_1719495812_259997081_301598371_752052885_769123046_769123048" linkIndex="8"/>
    <connection from="-127993283" to="-190644690#1" fromLane="0" toLane="0" tl="cluster_1719495812_259997081_301598371_752052885_769123046_769123048" linkIndex="9"/>
    <connection from="-127993283" to="127435987#1" fromLane="0" toLane="1" tl="cluster_1719495812_259997081_301598371_752052885_769123046_769123048" linkIndex="10"/>
    <connection from="-127993283" to="140124291#0" fromLane="0" toLane="0" tl="cluster_1719495812_259997081_301598371_752052885_769123046_769123048" linkIndex="11"/>
    <connection from="-127993283" to="166726937" fromLane="0" toLane="0" tl="cluster_1719495812_259997081_301598371_752052885_769123046_769123048" linkIndex="12"/>
    <connection from="-128897283#0" to="-197638009#4" fromLane="0" toLane="0" tl="joinedS_1" linkIndex="42"/>
    <connection from="-128897283#0" to="624255414#1" fromLane="0" toLane="0" tl="joinedS_1" linkIndex="43"/>
    <connection from="-128897283#0" to="-26222158#1" fromLane="0" toLane="0" tl="joinedS_1" linkIndex="44"/>
    <connection from="-128897283#0" to="624255419#1" fromLane="0" toLane="0" tl="joinedS_1" linkIndex="45"/>
    <connection from="-128898026#1" to="-128898026#0" fromLane="0" toLane="0" tl="joinedS_2" linkIndex="0"/>
    <connection from="-128898026#1" to="240561432#1" fromLane="0" toLane="0" tl="joinedS_2" linkIndex="1"/>
    <connection from="-128898026#1" to="128898026#1" fromLane="0" toLane="0" tl="joinedS_2" linkIndex="2"/>
    <connection from="-128898026#2" to="-128898026#1" fromLane="0" toLane="0" tl="joinedS_2" linkIndex="29"/>
    <connection from="-128898026#2" to="443014125#0" fromLane="0" toLane="0" tl="joinedS_2" linkIndex="30"/>
    <connection from="-128898026#2" to="224479256#1" fromLane="0" toLane="0" tl="joinedS_2" linkIndex="31"/>
    <connection from="-128898026#2" to="128898026#2" fromLane="0" toLane="0" tl="joinedS_2" linkIndex="32"/>
    <connection from="-128898030#1" to="34750425#2" fromLane="0" toLane="0" tl="cluster_1423165972_1423165975_1720196179_1720196181_2701491282_5894881728_5894881729" linkIndex="5"/>
    <connection from="-128898030#1" to="159950717#0" fromLane="0" toLane="0" tl="cluster_1423165972_1423165975_1720196179_1720196181_2701491282_5894881728_5894881729" linkIndex="6"/>
    <connection from="-128898030#1" to="128897291#0" fromLane="0" toLane="0" tl="cluster_1423165972_1423165975_1720196179_1720196181_2701491282_5894881728_5894881729" linkIndex="7"/>
    <connection from="-128898030#1" to="-104709807#1" fromLane="0" toLane="0" tl="cluster_1423165972_1423165975_1720196179_1720196181_2701491282_5894881728_5894881729" linkIndex="8"/>
    <connection from="-128898030#1" to="128898030#1" fromLane="0" toLane="0" tl="cluster_1423165972_1423165975_1720196179_1720196181_2701491282_5894881728_5894881729" linkIndex="9"/>
    <connection from="-140124291#0" to="166726937" fromLane="0" toLane="0" tl="cluster_1719495812_259997081_301598371_752052885_769123046_769123048" linkIndex="13"/>
    <connection from="-140124291#0" to="33140246" fromLane="0" toLane="0" tl="cluster_1719495812_259997081_301598371_752052885_769123046_769123048" linkIndex="14"/>
    <connection from="-140124291#0" to="127435977" fromLane="0" toLane="0" tl="cluster_1719495812_259997081_301598371_752052885_769123046_769123048" linkIndex="15"/>
    <connection from="-140124291#0" to="-190644690#1" fromLane="0" toLane="0" tl="cluster_1719495812_259997081_301598371_752052885_769123046_769123048" linkIndex="16"/>
    <connection from="-140124291#0" to="127435987#1" fromLane="0" toLane="1" tl="cluster_1719495812_259997081_301598371_752052885_769123046_769123048" linkIndex="17"/>
    <connection from="-140124291#0" to="140124291#0" fromLane="0" toLane="0" tl="cluster_1719495812_259997081_301598371_752052885_769123046_769123048" linkIndex="18"/>
    <connection from="-144784599#2" to="-144784599#1" fromLane="0" toLane="0" tl="1018520515" linkIndex="0"/>
    <connection from="-159950717#0" to="128897291#0" fromLane="0" toLane="0" tl="cluster_1423165972_1423165975_1720196179_1720196181_2701491282_5894881728_5894881729" linkIndex="20"/>
    <connection from="-159950717#0" to="-104709807#1" fromLane="0" toLane="0" tl="cluster_1423165972_1423165975_1720196179_1720196181_2701491282_5894881728_5894881729" linkIndex="21"/>
    <connection from="-159950717#0" to="128898030#1" fromLane="0" toLane="0" tl="cluster_1423165972_1423165975_1720196179_1720196181_2701491282_5894881728_5894881729" linkIndex="22"/>
    <connection from="-159950717#0" to="34750425#2" fromLane="0" toLane="0" tl="cluster_1423165972_1423165975_1720196179_1720196181_2701491282_5894881728_5894881729" linkIndex="23"/>
    <connection from="-159950717#0" to="159950717#0" fromLane="0" toLane="0" tl="cluster_1423165972_1423165975_1720196179_1720196181_2701491282_5894881728_5894881729" linkIndex="24"/>
    <connection from="-181623918#4" to="-181623918#3" fromLane="0" toLane="0" tl="1412824995" linkIndex="0"/>
    <connection from="-197638009#0" to="124416783#1" fromLane="0" toLane="0" tl="cluster_1423165961_1423165962_259997109_259997110_2834788801_3150602447_451791043_451791046" linkIndex="20"/>
    <connection from="-197638009#0" to="-140124288#0" fromLane="0" toLane="0" tl="cluster_1423165961_1423165962_259997109_259997110_2834788801_3150602447_451791043_451791046" linkIndex="21"/>
    <connection from="-197638009#0" to="197638009#0" fromLane="0" toLane="0" tl="cluster_1423165961_1423165962_259997109_259997110_2834788801_3150602447_451791043_451791046" linkIndex="22"/>
    <connection from="-197638009#3" to="101371626#3" fromLane="0" toLane="0" tl="cluster_1205630662_1207289208_1423165912_4406635032_8369732650" linkIndex="28"/>
    <connection from="-197638009#3" to="-443014117#6" fromLane="0" toLane="0" tl="cluster_1205630662_1207289208_1423165912_4406635032_8369732650" linkIndex="29"/>
    <connection from="-197638009#3" to="443014117#7" fromLane="0" toLane="0" tl="cluster_1205630662_1207289208_1423165912_4406635032_8369732650" linkIndex="30"/>
    <connection from="-197638009#3" to="-101371626#1" fromLane="0" toLane="1" tl="cluster_1205630662_1207289208_1423165912_4406635032_8369732650" linkIndex="31"/>
    <connection from="-197638009#3" to="-197638009#1" fromLane="0" toLane="0" tl="cluster_1205630662_1207289208_1423165912_4406635032_8369732650" linkIndex="32"/>
    <connection from="-197638009#3" to="-85131428#1" fromLane="0" toLane="0" tl="cluster_1205630662_1207289208_1423165912_4406635032_8369732650" linkIndex="33"/>
    <connection from="-197638009#3" to="197638009#3" fromLane="0" toLane="0" tl="cluster_1205630662_1207289208_1423165912_4406635032_8369732650" linkIndex="34"/>
    <connection from="-240561421#1" to="240561459#2" fromLane="0" toLane="0" tl="joinedS_2" linkIndex="45"/>
    <connection from="-240561421#1" to="-240561421#0" fromLane="0" toLane="0" tl="joinedS_2" linkIndex="46"/>
    <connection from="-240561421#1" to="240561421#1" fromLane="0" toLane="1" tl="joinedS_2" linkIndex="47"/>
    <connection from="-244477229#1" to="98462787" fromLane="0" toLane="1" tl="GS_cluster_1672439092_1672439108" linkIndex="4"/>
    <connection from="-244486735#3" to="624255416#1" fromLane="0" toLane="0" tl="joinedS_0" linkIndex="44"/>
    <connection from="-244486735#3" to="-244486735#2" fromLane="0" toLane="0" tl="joinedS_0" linkIndex="45"/>
    <connection from="-244486735#3" to="-624255416#0" fromLane="0" toLane="0" tl="joinedS_0" linkIndex="46"/>
    <connection from="-244486735#3" to="244486735#3" fromLane="0" toLane="0" tl="joinedS_0" linkIndex="47"/>
    <connection from="-244486738#1" to="-244486738#0" fromLane="0" toLane="0" tl="1207767966" linkIndex="2"/>
    <connection from="-244486738#1" to="244486738#1" fromLane="0" toLane="0" tl="1207767966" linkIndex="3"/>
    <connection from="-25945923#1" to="-25945923#0" fromLane="0" toLane="0" tl="654131766" linkIndex="1"/>
    <connection from="-26222158#1" to="624255418" fromLane="0" toLane="0" tl="joinedS_0" linkIndex="16"/>
    <connection from="-26222158#1" to="-443007340" fromLane="0" toLane="0" tl="joinedS_0" linkIndex="17"/>
    <connection from="-26222158#1" to="-624255417" fromLane="0" toLane="0" tl="joinedS_0" linkIndex="18"/>
    <connection from="-26222158#1" to="26222158#0" fromLane="0" toLane="0" tl="joinedS_0" linkIndex="19"/>
    <connection from="-275348780#1" to="-275348780#0" fromLane="0" toLane="0" tl="3792942749" linkIndex="1"/>
    <connection from="-279252405#1" to="240561427#1" fromLane="0" toLane="0" tl="cluster_1423165961_1423165962_259997109_259997110_2834788801_3150602447_451791043_451791046" linkIndex="6"/>
    <connection from="-279252405#1" to="197638009#0" fromLane="0" toLane="0" tl="cluster_1423165961_1423165962_259997109_259997110_2834788801_3150602447_451791043_451791046" linkIndex="7"/>
    <connection from="-279252405#1" to="124416783#1" fromLane="0" toLane="0" tl="cluster_1423165961_1423165962_259997109_259997110_2834788801_3150602447_451791043_451791046" linkIndex="8"/>
    <connection from="-279252405#1" to="-140124288#0" fromLane="0" toLane="0" tl="cluster_1423165961_1423165962_259997109_259997110_2834788801_3150602447_451791043_451791046" linkIndex="9"/>
    <connection from="-279252405#1" to="33139932" fromLane="0" toLane="0" tl="cluster_1423165961_1423165962_259997109_259997110_2834788801_3150602447_451791043_451791046" linkIndex="10"/>
    <connection from="-279252405#1" to="279252405#1" fromLane="0" toLane="0" tl="cluster_1423165961_1423165962_259997109_259997110_2834788801_3150602447_451791043_451791046" linkIndex="11"/>
    <connection from="-285341486#1" to="-285341486#0" fromLane="0" toLane="0" tl="1154380626" linkIndex="-1"/>
    <connection from="-30610470#2" to="128897282#8" fromLane="0" toLane="0" tl="cluster_1423166044_2482880334_2482880338_2701491285_2701491287_2701491288_3105811954_338474034_3587379558_8358711549_8360978011" linkIndex="8"/>