<?xml version="1.0" encoding="UTF-8"?>

<!-- generated on 2022-03-11 13:27:04 by Eclipse SUMO duarouter Version v1_11_0+0960-9a7789007a4
<configuration xmlns:xsi="http://www.w3.org/2001/XMLSchema-instance" xsi:noNamespaceSchemaLocation="http://sumo.dlr.de/xsd/duarouterConfiguration.xsd">

    <input>
        <net-file value="osm_edited.net.xml.gz"/>
        <route-files value="osm.passenger.trips.xml"/>
    </input>

    <output>
        <output-file value="osm.passenger.trips.xml.tmp"/>
        <write-trips value="true"/>
    </output>

    <time>
        <begin value="0"/>
        <end value="3600"/>
    </time>

    <report>
        <no-warnings value="true"/>
        <ignore-errors value="true"/>
        <no-step-log value="true"/>
    </report>

</configuration>
-->

<routes xmlns:xsi="http://www.w3.org/2001/XMLSchema-instance" xsi:noNamespaceSchemaLocation="http://sumo.dlr.de/xsd/routes_file.xsd">
    <vType id="veh_passenger" vClass="passenger"/>
    <trip id="veh0" type="veh_passenger" depart="0.00" departLane="best" from="184630311#1" to="-122939233#1"/>
    <trip id="veh1" type="veh_passenger" depart="0.69" departLane="best" from="26175074" to="26581772#0"/>
    <trip id="veh2" type="veh_passenger" depart="1.37" departLane="best" from="49355235#1" to="-172189511#7"/>
    <trip id="veh3" type="veh_passenger" depart="2.06" departLane="best" departSpeed="max" from="-54225653#2" to="-125515158#1"/>
    <trip id="veh4" type="veh_passenger" depart="2.74" departLane="best" departSpeed="max" from="-26099177" to="159954695#4"/>
    <trip id="veh5" type="veh_passenger" depart="3.43" departLane="best" from="-107469181#1" to="-28534933#0"/>
    <trip id="veh6" type="veh_passenger" depart="4.11" departLane="best" from="217908999#0" to="184405824#3"/>
    <trip id="veh7" type="veh_passenger" depart="4.80" departLane="best" from="-26205480#1" to="23696275#16"/>
    <trip id="veh8" type="veh_passenger" depart="5.49" departLane="best" from="321047093" to="-101374526"/>
    <trip id="veh9" type="veh_passenger" depart="6.17" departLane="best" from="321032859#0" to="286125149"/>
    <trip id="veh10" type="veh_passenger" depart="6.86" departLane="best" from="-370552766#0" to="-25805445#1"/>
    <trip id="veh11" type="veh_passenger" depart="7.54" departLane="best" from="682841361#0" to="-60253088#6"/>
    <trip id="veh12" type="veh_passenger" depart="8.23" departLane="best" departSpeed="max" from="-159819717#4" to="-178503651#3"/>
    <trip id="veh13" type="veh_passenger" depart="8.92" departLane="best" from="37033885#1" to="240561430"/>
    <trip id="veh14" type="veh_passenger" depart="9.60" departLane="best" from="321047062#1" to="306419995#0"/>
    <trip id="veh15" type="veh_passenger" depart="10.29" departLane="best" departSpeed="max" from="124416773#0" to="85131429"/>
    <trip id="veh16" type="veh_passenger" depart="10.97" departLane="best" departSpeed="max" from="-43406170#1" to="190486437#0"/>
    <trip id="veh17" type="veh_passenger" depart="11.66" departLane="best" from="34160113#1" to="251488305"/>
    <trip id="veh18" type="veh_passenger" depart="12.34" departLane="best" from="37334675#1" to="233824703#1"/>
    <trip id="veh19" type="veh_passenger" depart="13.03" departLane="best" from="25796743#9" to="-144784599#2"/>
    <trip id="veh20" type="veh_passenger" depart="13.72" departLane="best" from="-266888337#2" to="-41890716#1"/>
    <trip id="veh21" type="veh_passenger" depart="14.40" departLane="best" from="-157535172" to="-321047088"/>
    <trip id="veh22" type="veh_passenger" depart="15.09" departLane="best" from="-160011978#3" to="-37334675#0"/>
    <trip id="veh23" type="veh_passenger" depart="15.77" departLane="best" from="184405824#0" to="-72502412#0"/>
    <trip id="veh24" type="veh_passenger" depart="16.46" departLane="best" from="-30610463#2" to="66758074#2"/>
    <trip id="veh25" type="veh_passenger" depart="17.14" departLane="best" from="204019257" to="241913077#2"/>
    <trip id="veh26" type="veh_passenger" depart="17.83" departLane="best" from="-241913077#1" to="306418874#0"/>
    <trip id="veh27" type="veh_passenger" depart="18.52" departLane="best" from="-23688920#7" to="-85314640"/>
    <trip id="veh28" type="veh_passenger" depart="19.20" departLane="best" from="902040672#0" to="25805452#7"/>
    <trip id="veh29" type="veh_passenger" depart="19.89" departLane="best" from="131791165#5" to="274995667#1"/>
    <trip id="veh30" type="veh_passenger" depart="20.57" departLane="best" from="35980403#4" to="341872603#1"/>
    <trip id="veh31" type="veh_passenger" depart="21.26" departLane="best" departSpeed="max" from="-266888337#4" to="-127435989#1"/>
    <trip id="veh32" type="veh_passenger" depart="21.95" departLane="best" from="-34750804" to="-37033887#1"/>
    <trip id="veh33" type="veh_passenger" depart="22.63" departLane="best" from="-26013134#3" to="67332189#3"/>
    <trip id="veh34" type="veh_passenger" depart="23.32" departLane="best" from="41890715#1" to="-512766532#1"/>
    <trip id="veh35" type="veh_passenger" depart="24.00" departLane="best" departSpeed="max" from="233394032#0" to="101368453#2"/>
    <trip id="veh37" type="veh_passenger" depart="25.37" departLane="best" from="-30610461#6" to="-326037423#1"/>
    <trip id="veh38" type="veh_passenger" depart="26.06" departLane="best" from="146701421" to="-35980404#5"/>
    <trip id="veh39" type="veh_passenger" depart="26.75" departLane="best" from="157539099#4" to="541547520"/>
    <trip id="veh40" type="veh_passenger" depart="27.43" departLane="best" from="-49424442" to="-306417542#1"/>
    <trip id="veh41" type="veh_passenger" depart="28.12" departLane="best" from="98504017#0" to="172189511#1"/>
    <trip id="veh43" type="veh_passenger" depart="29.49" departLane="best" departSpeed="max" from="-175418943" to="25796747#1"/>
    <trip id="veh44" type="veh_passenger" depart="30.17" departLane="best" from="309719296#0" to="105592740#6"/>
    <trip id="veh45" type="veh_passenger" depart="30.86" departLane="best" from="-151585860#3" to="-85445844#1"/>
    <trip id="veh46" type="veh_passenger" depart="31.55" departLane="best" from="970701033#0" to="178503651#1"/>
    <trip id="veh49" type="veh_passenger" depart="33.60" departLane="best" from="240545268" to="179966411#2"/>
    <trip id="veh50" type="veh_passenger" depart="34.29" departLane="best" from="-30610463#1" to="25805456#0"/>
    <trip id="veh51" type="veh_passenger" depart="34.98" departLane="best" departSpeed="max" from="-177647988" to="124416783#1"/>
    <trip id="veh52" type="veh_passenger" depart="35.66" departLane="best" from="-66758074#2" to="72498352"/>
    <trip id="veh53" type="veh_passenger" depart="36.35" departLane="best" departSpeed="max" from="417099426" to="-35980405#2"/>
    <trip id="veh54" type="veh_passenger" depart="37.03" departLane="best" departSpeed="max" from="-92469480" to="-26203167"/>
    <trip id="veh55" type="veh_passenger" depart="37.72" departLane="best" from="527053553#1" to="49355232#2"/>
    <trip id="veh56" type="veh_passenger" depart="38.40" departLane="best" from="-321426017" to="25805452#2"/>
    <trip id="veh57" type="veh_passenger" depart="39.09" departLane="best" from="172189511#16" to="-25805424"/>
    <trip id="veh58" type="veh_passenger" depart="39.78" departLane="best" departSpeed="max" from="28534933#0" to="182210575#1"/>
    <trip id="veh59" type="veh_passenger" depart="40.46" departLane="best" from="304378755" to="178592412#2"/>
    <trip id="veh60" type="veh_passenger" depart="41.15" departLane="best" departSpeed="max" from="-100655979" to="-541547520"/>
    <trip id="veh61" type="veh_passenger" depart="41.83" departLane="best" departSpeed="max" from="-105197681" to="65547459"/>
    <trip id="veh62" type="veh_passenger" depart="42.52" departLane="best" from="41890721#0" to="37630651#1"/>
    <trip id="veh63" type="veh_passenger" depart="43.20" departLane="best" from="-34160113#8" to="-155316858"/>
    <trip id="veh64" type="veh_passenger" depart="43.89" departLane="best" from="41890716#6" to="68030120"/>
    <trip id="veh65" type="veh_passenger" depart="44.58" departLane="best" from="-159190117#6" to="157537322#2"/>
    <trip id="veh66" type="veh_passenger" depart="45.26" departLane="best" from="-151592248#6" to="321426008"/>
    <trip id="veh67" type="veh_passenger" depart="45.95" departLane="best" from="286125147" to="-233832344#1"/>
    <trip id="veh68" type="veh_passenger" depart="46.63" departLane="best" from="-72618155#0" to="184630311#1"/>
    <trip id="veh69" type="veh_passenger" depart="47.32" departLane="best" from="-30610461#7" to="49355235#1"/>
    <trip id="veh70" type="veh_passenger" depart="48.01" departLane="best" departSpeed="max" from="-55893388#1" to="-30610459#3"/>
    <trip id="veh71" type="veh_passenger" depart="48.69" departLane="best" from="124416783#0" to="306419995#1"/>
    <trip id="veh72" type="veh_passenger" depart="49.38" departLane="best" from="-25945925#1" to="-50814912#7"/>
    <trip id="veh73" type="veh_passenger" depart="50.06" departLane="best" from="970701031" to="25945948#2"/>
    <trip id="veh74" type="veh_passenger" depart="50.75" departLane="best" departSpeed="max" from="-60253094" to="175418949"/>
    <trip id="veh75" type="veh_passenger" depart="51.43" departLane="best" from="-178592412#5" to="-318085257#0"/>
    <trip id="veh76" type="veh_passenger" depart="52.12" departLane="best" from="-37033900#2" to="23696275#12"/>
    <trip id="veh77" type="veh_passenger" depart="52.81" departLane="best" from="-27033037#3" to="-306417543#3"/>
    <trip id="veh78" type="veh_passenger" depart="53.49" departLane="best" departSpeed="max" from="-151592252" to="25805425#1"/>
    <trip id="veh80" type="veh_passenger" depart="54.86" departLane="best" from="37214772#4" to="-159818666#1"/>
    <trip id="veh81" type="veh_passenger" depart="55.55" departLane="best" from="-28190428#6" to="26205495"/>
    <trip id="veh82" type="veh_passenger" depart="56.23" departLane="best" from="-26013144#0" to="-23688902#0"/>
    <trip id="veh83" type="veh_passenger" depart="56.92" departLane="best" from="606803222#1" to="218965108#1"/>
    <trip id="veh84" type="veh_passenger" depart="57.61" departLane="best" departSpeed="max" from="-72502412#5" to="35151579#1"/>
    <trip id="veh85" type="veh_passenger" depart="58.29" departLane="best" from="321047071" to="-27273802#1"/>
    <trip id="veh86" type="veh_passenger" depart="58.98" departLane="best" from="-159949969#3" to="123587960#0"/>
    <trip id="veh87" type="veh_passenger" depart="59.66" departLane="best" departSpeed="max" from="-55893388#1" to="151590005#1"/>
    <trip id="veh88" type="veh_passenger" depart="60.35" departLane="best" from="85445844#1" to="-178592412#5"/>
    <trip id="veh89" type="veh_passenger" depart="61.04" departLane="best" departSpeed="max" from="-50076379" to="-60253093#1"/>
    <trip id="veh90" type="veh_passenger" depart="61.72" departLane="best" from="37334675#1" to="-33055444#2"/>
    <trip id="veh91" type="veh_passenger" depart="62.41" departLane="best" from="-25805439#1" to="127727139#1"/>
    <trip id="veh92" type="veh_passenger" depart="63.09" departLane="best" departSpeed="max" from="-54225653#2" to="-37334675#3"/>
    <trip id="veh93" type="veh_passenger" depart="63.78" departLane="best" from="-29074526#2" to="61454716#1"/>
    <trip id="veh94" type="veh_passenger" depart="64.46" departLane="best" from="-61454715#3" to="449592474"/>
    <trip id="veh95" type="veh_passenger" depart="65.15" departLane="best" from="127529207#7" to="-151585860#4"/>
    <trip id="veh96" type="veh_passenger" depart="65.84" departLane="best" from="E20" to="38292210#3"/>
    <trip id="veh97" type="veh_passenger" depart="66.52" departLane="best" from="744142989" to="653049135#0"/>
    <trip id="veh98" type="veh_passenger" depart="67.21" departLane="best" from="37033890#2" to="-25945948#0"/>
    <trip id="veh99" type="veh_passenger" depart="67.89" departLane="best" departSpeed="max" from="-85131429" to="-30610461#3"/>
    <trip id="veh100" type="veh_passenger" depart="68.58" departLane="best" from="-50071472#2" to="-155316860#2"/>
    <trip id="veh102" type="veh_passenger" depart="69.95" departLane="best" from="-30610461#8" to="35003540#2"/>
    <trip id="veh103" type="veh_passenger" depart="70.64" departLane="best" from="-66758076" to="107469181#2"/>
    <trip id="veh104" type="veh_passenger" depart="71.32" departLane="best" from="682841361#0" to="970701031"/>
    <trip id="veh105" type="veh_passenger" depart="72.01" departLane="best" from="131791165#0" to="30610460#1"/>
    <trip id="veh106" type="veh_passenger" depart="72.69" departLane="best" from="-233824686#0" to="-43406176#5"/>
    <trip id="veh107" type="veh_passenger" depart="73.38" departLane="best" from="72984812#1" to="233832326"/>
    <trip id="veh108" type="veh_passenger" depart="74.07" departLane="best" departSpeed="max" from="126986339" to="321032855"/>
    <trip id="veh109" type="veh_passenger" depart="74.75" departLane="best" from="-136593386" to="23554734#5"/>
    <trip id="veh110" type="veh_passenger" depart="75.44" departLane="best" from="-94790135" to="43406170#1"/>
    <trip id="veh111" type="veh_passenger" depart="76.12" departLane="best" from="-233832344#1" to="72618154#3"/>
    <trip id="veh112" type="veh_passenger" depart="76.81" departLane="best" from="-157535178#0" to="-27033037#2"/>
    <trip id="veh113" type="veh_passenger" depart="77.49" departLane="best" from="159819718" to="26246582#1"/>
    <trip id="veh114" type="veh_passenger" depart="78.18" departLane="best" from="-274995667#2" to="-204019257"/>
    <trip id="veh117" type="veh_passenger" depart="80.24" departLane="best" from="-527411713#3" to="23554734#3"/>
    <trip id="veh118" type="veh_passenger" depart="80.92" departLane="best" from="104709800#2" to="66758072#1"/>
    <trip id="veh119" type="veh_passenger" depart="81.61" departLane="best" from="-25945947#0" to="304425250"/>
    <trip id="veh121" type="veh_passenger" depart="82.98" departLane="best" from="23696275#22" to="-4683013#0"/>
    <trip id="veh122" type="veh_passenger" depart="83.67" departLane="best" from="-35151579#1" to="321047093"/>
    <trip id="veh123" type="veh_passenger" depart="84.35" departLane="best" from="-155316860#0" to="146203660#0"/>
    <trip id="veh124" type="veh_passenger" depart="85.04" departLane="best" departSpeed="max" from="-157124727" to="-30610461#1"/>
    <trip id="veh125" type="veh_passenger" depart="85.72" departLane="best" from="-30610461#8" to="662874883#1"/>
    <trip id="veh126" type="veh_passenger" depart="86.41" departLane="best" from="42262105#0" to="50463828#1"/>
    <trip id="veh127" type="veh_passenger" depart="87.10" departLane="best" from="-41050375#10" to="-25805452#1"/>
    <trip id="veh128" type="veh_passenger" depart="87.78" departLane="best" from="341872603#0" to="290567713#3"/>
    <trip id="veh129" type="veh_passenger" depart="88.47" departLane="best" from="175256599#1" to="902040671"/>
    <trip id="veh130" type="veh_passenger" depart="89.15" departLane="best" from="233150002#1" to="-101374530#3"/>
    <trip id="veh131" type="veh_passenger" depart="89.84" departLane="best" from="321426002#3" to="-462191391#0"/>
    <trip id="veh132" type="veh_passenger" depart="90.52" departLane="best" from="23554734#1" to="66758080#1"/>
    <trip id="veh133" type="veh_passenger" depart="91.21" departLane="best" from="-184452796#1" to="-195601652"/>
    <trip id="veh134" type="veh_passenger" depart="91.90" departLane="best" from="-175256608#1" to="190644687"/>
    <trip id="veh135" type="veh_passenger" depart="92.58" departLane="best" from="-306418874#1" to="240561437#3"/>
    <trip id="veh136" type="veh_passenger" depart="93.27" departLane="best" from="25805460" to="-29074526#1"/>
    <trip id="veh137" type="veh_passenger" depart="93.95" departLane="best" from="183905932#0" to="-36814275#2"/>
    <trip id="veh139" type="veh_passenger" depart="95.32" departLane="best" from="36906143#1" to="-177863200#10"/>
    <trip id="veh140" type="veh_passenger" depart="96.01" departLane="best" departSpeed="max" from="-55893388#1" to="-37334669#3"/>
    <trip id="veh141" type="veh_passenger" depart="96.70" departLane="best" from="-101371626#0" to="338509093#3"/>
    <trip id="veh142" type="veh_passenger" depart="97.38" departLane="best" from="184452796#1" to="-35980404#2"/>
    <trip id="veh143" type="veh_passenger" depart="98.07" departLane="best" from="26205501#0" to="188952798"/>
    <trip id="veh145" type="veh_passenger" depart="99.44" departLane="best" from="-157253918#2" to="508611302#1"/>
    <trip id="veh146" type="veh_passenger" depart="100.13" departLane="best" from="51678464" to="184441095"/>
    <trip id="veh147" type="veh_passenger" depart="100.81" departLane="best" from="34203641#2" to="23554716#0"/>
    <trip id="veh148" type="veh_passenger" depart="101.50" departLane="best" departSpeed="max" from="-207516647" to="-233827759#0"/>
    <trip id="veh149" type="veh_passenger" depart="102.18" departLane="best" from="-34160317#0" to="541887707"/>
    <trip id="veh150" type="veh_passenger" depart="102.87" departLane="best" from="318085257#4" to="443002919#0"/>
    <trip id="veh151" type="veh_passenger" depart="103.55" departLane="best" from="50463836#1" to="-30107201#4"/>
    <trip id="veh152" type="veh_passenger" depart="104.24" departLane="best" from="30610459#4" to="508611305#1"/>
    <trip id="veh153" type="veh_passenger" depart="104.93" departLane="best" from="-50463835" to="256186559#0"/>
    <trip id="veh154" type="veh_passenger" depart="105.61" departLane="best" from="-233791123" to="65547478#2"/>
    <trip id="veh155" type="veh_passenger" depart="106.30" departLane="best" from="37728685#1" to="85256467#1"/>
    <trip id="veh156" type="veh_passenger" depart="106.98" departLane="best" from="321421855#1" to="50814912#2"/>
    <trip id="veh157" type="veh_passenger" depart="107.67" departLane="best" from="-105592740#1" to="32015721"/>
    <trip id="veh158" type="veh_passenger" depart="108.35" departLane="best" from="-37033884#6" to="65547487"/>
    <trip id="veh159" type="veh_passenger" depart="109.04" departLane="best" from="321032830" to="463476259"/>
    <trip id="veh160" type="veh_passenger" depart="109.73" departLane="best" from="321421855#1" to="-37033884#6"/>
    <trip id="veh161" type="veh_passenger" depart="110.41" departLane="best" from="41050375#3" to="43406178"/>
    <trip id="veh162" type="veh_passenger" depart="111.10" departLane="best" from="-26208621#0" to="37134019#1"/>
    <trip id="veh163" type="veh_passenger" depart="111.78" departLane="best" from="-67332189#7" to="-49863417#1"/>
    <trip id="veh164" type="veh_passenger" depart="112.47" departLane="best" from="318085257#1" to="-32015958#1"/>
    <trip id="veh165" type="veh_passenger" depart="113.16" departLane="best" departSpeed="max" from="-105197697#1" to="-279126934#1"/>
    <trip id="veh166" type="veh_passenger" depart="113.84" departLane="best" from="-36814275#5" to="463476259"/>
    <trip id="veh167" type="veh_passenger" depart="114.53" departLane="best" from="72618154#1" to="-37334675#5"/>
    <trip id="veh168" type="veh_passenger" depart="115.21" departLane="best" from="190904362#5" to="101374523#3"/>
    <trip id="veh169" type="veh_passenger" depart="115.90" departLane="best" departSpeed="max" from="85314640" to="179833533#1"/>
    <trip id="veh170" type="veh_passenger" depart="116.58" departLane="best" from="645561019#1" to="-193769383#0"/>
    <trip id="veh172" type="veh_passenger" depart="117.96" departLane="best" from="720137341" to="-36906143#1"/>
    <trip id="veh173" type="veh_passenger" depart="118.64" departLane="best" from="-175277202#1" to="124416783#0"/>
    <trip id="veh174" type="veh_passenger" depart="119.33" departLane="best" from="26013133#4" to="-508611305#0"/>
    <trip id="veh175" type="veh_passenger" depart="120.01" departLane="best" departSpeed="max" from="169954312" to="172189511#3"/>
    <trip id="veh176" type="veh_passenger" depart="120.70" departLane="best" departSpeed="max" from="-43406178" to="233824686#1"/>
    <trip id="veh177" type="veh_passenger" depart="121.38" departLane="best" from="-29718951#2" to="29309489#4"/>
    <trip id="veh178" type="veh_passenger" depart="122.07" departLane="best" from="-101368446#0" to="653049133#0"/>
    <trip id="veh179" type="veh_passenger" depart="122.76" departLane="best" from="124416778#0" to="30610461#2"/>
    <trip id="veh180" type="veh_passenger" depart="123.44" departLane="best" from="26205508" to="26209972"/>
    <trip id="veh181" type="veh_passenger" depart="124.13" departLane="best" from="-387404598" to="-159511090#0"/>
    <trip id="veh182" type="veh_passenger" depart="124.81" departLane="best" from="23554734#3" to="-595999978"/>
    <trip id="veh183" type="veh_passenger" depart="125.50" departLane="best" from="-34750129#2" to="41890716#4"/>
    <trip id="veh184" type="veh_passenger" depart="126.19" departLane="best" from="25945925#0" to="-47001717#0"/>
    <trip id="veh185" type="veh_passenger" depart="126.87" departLane="best" from="-341872603#2" to="104494836#2"/>
    <trip id="veh186" type="veh_passenger" depart="127.56" departLane="best" departSpeed="max" from="-50076379" to="-43406176#0"/>
    <trip id="veh187" type="veh_passenger" depart="128.24" departLane="best" from="-182685721#1" to="105197697#1"/>
    <trip id="veh188" type="veh_passenger" depart="128.93" departLane="best" from="653049134#1" to="266888337#0"/>
    <trip id="veh189" type="veh_passenger" depart="129.61" departLane="best" from="51266581#0" to="244486735#1"/>
    <trip id="veh190" type="veh_passenger" depart="130.30" departLane="best" from="-325187141#0" to="184452796#3"/>
    <trip id="veh191" type="veh_passenger" depart="130.99" departLane="best" departSpeed="max" from="-100655979" to="-41050375#8"/>
    <trip id="veh192" type="veh_passenger" depart="131.67" departLane="best" from="-60253079" to="23523941#2"/>
    <trip id="veh193" type="veh_passenger" depart="132.36" departLane="best" from="233150002#4" to="151585860#3"/>
    <trip id="veh194" type="veh_passenger" depart="133.04" departLane="best" from="-61454714#6" to="-30610461#3"/>
    <trip id="veh195" type="veh_passenger" depart="133.73" departLane="best" departSpeed="max" from="-72502412#5" to="55893388#1"/>
    <trip id="veh196" type="veh_passenger" depart="134.41" departLane="best" from="318085257#4" to="-25990583"/>
    <trip id="veh197" type="veh_passenger" depart="135.10" departLane="best" from="-159190117#0" to="175277202#0"/>
    <trip id="veh198" type="veh_passenger" depart="135.79" departLane="best" from="182685721#1" to="-60253087#0"/>
    <trip id="veh199" type="veh_passenger" depart="136.47" departLane="best" from="321426010#0" to="321047080"/>
    <trip id="veh200" type="veh_passenger" depart="137.16" departLane="best" from="23696275#6" to="-317826057#0"/>
    <trip id="veh201" type="veh_passenger" depart="137.84" departLane="best" departSpeed="max" from="-25805464" to="-116196036#5"/>
    <trip id="veh202" type="veh_passenger" depart="138.53" departLane="best" from="-286130640" to="154751829"/>
    <trip id="veh203" type="veh_passenger" depart="139.22" departLane="best" from="37033900#1" to="-159818666#9"/>
    <trip id="veh204" type="veh_passenger" depart="139.90" departLane="best" from="-52110804#1" to="25805422#0"/>
    <trip id="veh205" type="veh_passenger" depart="140.59" departLane="best" departSpeed="max" from="-25805451" to="286119051#1"/>
    <trip id="veh206" type="veh_passenger" depart="141.27" departLane="best" from="-85445849#3" to="-321426018"/>
    <trip id="veh207" type="veh_passenger" depart="141.96" departLane="best" from="233394032#1" to="-101374524#0"/>
    <trip id="veh208" type="veh_passenger" depart="142.64" departLane="best" from="27273779#5" to="33141498#0"/>
    <trip id="veh209" type="veh_passenger" depart="143.33" departLane="best" from="-175256599#1" to="108448592#4"/>
    <trip id="veh210" type="veh_passenger" depart="144.02" departLane="best" from="-244486735#3" to="72502412#2"/>
    <trip id="veh212" type="veh_passenger" depart="145.39" departLane="best" departSpeed="max" from="-290567713#6" to="41890716#5"/>
    <trip id="veh213" type="veh_passenger" depart="146.07" departLane="best" departSpeed="max" from="-66758080#1" to="37033884#2"/>
    <trip id="veh214" type="veh_passenger" depart="146.76" departLane="best" departSpeed="max" from="23688902#0" to="902040674#0"/>
    <trip id="veh215" type="veh_passenger" depart="147.44" departLane="best" from="159820784" to="693049760#0"/>
    <trip id="veh216" type="veh_passenger" depart="148.13" departLane="best" from="49355232#0" to="244477172#0"/>
    <trip id="veh217" type="veh_passenger" depart="148.82" departLane="best" from="25945923#1" to="159954695#1"/>
    <trip id="veh218" type="veh_passenger" depart="149.50" departLane="best" from="34160113#15" to="184452796#3"/>
    <trip id="veh219" type="veh_passenger" depart="150.19" departLane="best" from="50371428#1" to="321022100"/>
    <trip id="veh220" type="veh_passenger" depart="150.87" departLane="best" from="-72618154#3" to="-35003540#1"/>
    <trip id="veh221" type="veh_passenger" depart="151.56" departLane="best" from="-290567713#1" to="25805451"/>
    <trip id="veh222" type="veh_passenger" depart="152.25" departLane="best" from="286125147" to="177791484#0"/>
    <trip id="veh223" type="veh_passenger" depart="152.93" departLane="best" from="179631758#1" to="-37134021#0"/>
    <trip id="veh224" type="veh_passenger" depart="153.62" departLane="best" departSpeed="max" from="-157403654" to="-41050375#10"/>
    <trip id="veh225" type="veh_passenger" depart="154.30" departLane="best" from="-306417543#2" to="-52110804#1"/>
    <trip id="veh226" type="veh_passenger" depart="154.99" departLane="best" departSpeed="max" from="125515158#0" to="-23696275#7"/>
    <trip id="veh227" type="veh_passenger" depart="155.67" departLane="best" from="-27273765#3" to="283502278#2"/>
    <trip id="veh228" type="veh_passenger" depart="156.36" departLane="best" from="25796748#0" to="-157537321#1"/>
    <trip id="veh229" type="veh_passenger" depart="157.05" departLane="best" from="-50814912#1" to="183906704#2"/>
    <trip id="veh230" type="veh_passenger" depart="157.73" departLane="best" departSpeed="max" from="-52110806" to="-29309489#3"/>
    <trip id="veh232" type="veh_passenger" depart="159.10" departLane="best" from="157539099#1" to="286110833"/>
    <trip id="veh233" type="veh_passenger" depart="159.79" departLane="best" from="37134021#0" to="325187140"/>
    <trip id="veh234" type="veh_passenger" depart="160.47" departLane="best" from="-43406172" to="-101374525#0"/>
    <trip id="veh235" type="veh_passenger" depart="161.16" departLane="best" from="-37334669#2" to="321421860"/>
    <trip id="veh237" type="veh_passenger" depart="162.53" departLane="best" from="-527411713#2" to="321032848"/>
    <trip id="veh238" type="veh_passenger" depart="163.22" departLane="best" from="127529157#1" to="240561428#0"/>
    <trip id="veh239" type="veh_passenger" depart="163.90" departLane="best" from="-26205480#2" to="-306417542#2"/>
    <trip id="veh240" type="veh_passenger" depart="164.59" departLane="best" from="-60253089#0" to="-125515158#0"/>
    <trip id="veh241" type="veh_passenger" depart="165.28" departLane="best" departSpeed="max" from="-37033888#3" to="27033036"/>
    <trip id="veh242" type="veh_passenger" depart="165.96" departLane="best" from="-50371428#4" to="-25945929#0"/>
    <trip id="veh244" type="veh_passenger" depart="167.33" departLane="best" from="178503651#3" to="-124416773#0"/>
    <trip id="veh246" type="veh_passenger" depart="168.70" departLane="best" from="-107733518#0" to="25805463"/>
    <trip id="veh247" type="veh_passenger" depart="169.39" departLane="best" from="-184630050#0" to="148238402#0"/>
    <trip id="veh248" type="veh_passenger" depart="170.08" departLane="best" departSpeed="max" from="-127657356" to="-85314635#4"/>
    <trip id="veh249" type="veh_passenger" depart="170.76" departLane="best" from="-26013136#1" to="-55893388#0"/>
    <trip id="veh250" type="veh_passenger" depart="171.45" departLane="best" from="283502278#2" to="-85314635#4"/>
    <trip id="veh251" type="veh_passenger" depart="172.13" departLane="best" departSpeed="max" from="27273802#0" to="37630651#1"/>
    <trip id="veh252" type="veh_passenger" depart="172.82" departLane="best" from="-29309488#2" to="-159980917"/>
    <trip id="veh254" type="veh_passenger" depart="174.19" departLane="best" from="E22" to="-65547495#2"/>
    <trip id="veh255" type="veh_passenger" depart="174.88" departLane="best" from="217908999#1" to="34750079#2"/>
    <trip id="veh256" type="veh_passenger" depart="175.56" departLane="best" departSpeed="max" from="223117950" to="321421861#10"/>
    <trip id="veh257" type="veh_passenger" depart="176.25" departLane="best" from="66941720#0" to="-28534933#1"/>
    <trip id="veh258" type="veh_passenger" depart="176.93" departLane="best" from="-105197685#0" to="-25805422#0"/>
    <trip id="veh259" type="veh_passenger" depart="177.62" departLane="best" from="-181623918#8" to="26205501#2"/>
    <trip id="veh260" type="veh_passenger" depart="178.31" departLane="best" from="151585859#5" to="-30610465#0"/>
    <trip id="veh261" type="veh_passenger" depart="178.99" departLane="best" departSpeed="max" from="254600529" to="325377870#1"/>
    <trip id="veh262" type="veh_passenger" depart="179.68" departLane="best" from="-23696275#8" to="240561452"/>
    <trip id="veh263" type="veh_passenger" depart="180.36" departLane="best" from="27033037#2" to="-193769369"/>
    <trip id="veh265" type="veh_passenger" depart="181.73" departLane="best" from="-175277202#0" to="-123587958#1"/>