<?xml version="1.0" encoding="UTF-8"?>

<!-- generated on 2021-12-20 16:18:47 by Eclipse SUMO netconvert Version 1.10.0
<configuration xmlns:xsi="http://www.w3.org/2001/XMLSchema-instance" xsi:noNamespaceSchemaLocation="http://sumo.dlr.de/xsd/netconvertConfiguration.xsd">

    <input>
        <sumo-net-file value="../osm/osm.net.xml"/>
    </input>

    <output>
        <plain-output-prefix value="../osm/osm"/>
        <output.street-names value="true"/>
    </output>

    <processing>
        <geometry.min-radius.fix.railways value="false"/>
        <geometry.max-grade.fix value="false"/>
        <offset.disable-normalization value="true"/>
        <roundabouts.guess value="false"/>
        <lefthand value="false"/>
    </processing>

    <junctions>
        <no-turnarounds value="true"/>
        <junctions.corner-detail value="5"/>
        <junctions.limit-turn-speed value="5.5"/>
        <rectangular-lane-cut value="false"/>
    </junctions>

    <pedestrian>
        <walkingareas value="false"/>
    </pedestrian>

    <report>
        <aggregate-warnings value="5"/>
    </report>

</configuration>
-->

<edges version="1.9" xmlns:xsi="http://www.w3.org/2001/XMLSchema-instance" xsi:noNamespaceSchemaLocation="http://sumo.dlr.de/xsd/edges_file.xsd">
    <edge id="-100622984#0" from="1163273819" to="1163273872" priority="1" type="highway.track" numLanes="1" speed="5.56" shape="4351.49,9400.26 4402.98,9484.57 4412.21,9496.70" allow="pedestrian motorcycle moped bicycle">
        <lane index="0">
            <param key="origId" value="100622984"/>
        </lane>
    </edge>
    <edge id="-100622984#1" from="1163273811" to="1163273819" priority="1" type="highway.track" numLanes="1" speed="5.56" shape="4548.14,9374.27 4565.21,9342.17 4565.29,9333.11 4560.81,9326.26 4546.83,9323.12 4522.62,9321.01 4423.59,9342.39 4387.37,9368.87 4351.49,9400.26" allow="pedestrian motorcycle moped bicycle">
        <lane index="0">
            <param key="origId" value="100622984"/>
        </lane>
    </edge>
    <edge id="-100655979" from="1163640886" to="1163640206" name="Formerstraße" priority="3" type="highway.residential" numLanes="1" speed="8.33" disallow="tram rail_urban rail rail_electric rail_fast ship">
        <lane index="0">
            <param key="origId" value="100655979"/>
        </lane>
    </edge>
    <edge id="-100655982" from="1163636333" to="1196935810" priority="1" type="highway.path" numLanes="1" speed="2.78" width="2.00" allow="pedestrian bicycle">
        <lane index="0">
            <param key="origId" value="100655982"/>
        </lane>
    </edge>
    <edge id="-100655989#0" from="1163636549" to="1196935809" priority="1" type="highway.track" numLanes="1" speed="5.56" allow="pedestrian motorcycle moped bicycle">
        <lane index="0">
            <param key="origId" value="100655989"/>
        </lane>
    </edge>
    <edge id="-100655989#1" from="1163636333" to="1163636549" priority="1" type="highway.track" numLanes="1" speed="5.56" shape="9176.33,6979.94 9182.31,6972.65 9183.75,6958.92" allow="pedestrian motorcycle moped bicycle">
        <lane index="0">
            <param key="origId" value="100655989"/>
        </lane>
    </edge>
    <edge id="-100655990" from="1196936979" to="1163637743" priority="1" type="highway.path" numLanes="1" speed="2.78" shape="8994.78,7318.98 8965.86,7289.59 8965.15,7282.66 8960.33,7228.14" width="2.00" allow="pedestrian bicycle">
        <lane index="0">
            <param key="origId" value="100655990"/>
        </lane>
    </edge>
    <edge id="-101368427" from="405196929" to="258351777" priority="12" type="highway.primary" numLanes="2" speed="27.78" shape="7939.34,9712.49 7944.74,9725.09 7960.71,9757.49 7968.73,9772.25" disallow="tram rail_urban rail rail_electric rail_fast ship">
        <lane index="0" changeLeft="authority" changeRight="authority">
            <param key="origId" value="101368427"/>
        </lane>
        <lane index="1" changeLeft="authority" changeRight="authority">
            <param key="origId" value="101368427"/>
        </lane>
        <param key="ref" value="B 27"/>
    </edge>
    <edge id="-101368435" from="1170526404" to="2796605765" name="Im Zellersgrund" priority="3" type="highway.residential" numLanes="1" speed="13.89" shape="7826.04,9638.62 7758.97,9661.70 7744.25,9666.00 7691.32,9678.12 7667.62,9683.34 7550.67,9717.09 7529.02,9725.68 7492.10,9741.86 7487.94,9742.94 7483.05,9743.67 7460.83,9745.36" disallow="tram rail_urban rail rail_electric rail_fast ship">
        <lane index="0">
            <param key="origId" value="101368435"/>
        </lane>
    </edge>
    <edge id="-101368444" from="2796605706" to="405196929" priority="12" type="highway.primary" numLanes="1" speed="27.78" shape="7910.14,9627.37 7916.89,9653.50 7924.58,9676.36 7931.06,9693.61 7939.34,9712.49" disallow="tram rail_urban rail rail_electric rail_fast ship">
        <lane index="0">
            <param key="origId" value="101368444"/>
        </lane>
        <param key="ref" value="B 27"/>
    </edge>
    <edge id="-101368446#0" from="1170526404" to="410565844" name="Im Zellersgrund" priority="3" type="highway.residential" numLanes="1" speed="13.89" shape="7826.04,9638.62 7829.65,9646.67 7849.51,9678.67" disallow="tram rail_urban rail rail_electric rail_fast ship">
        <lane index="0">
            <param key="origId" value="101368446"/>
        </lane>
    </edge>
    <edge id="-101368446#1" from="1170526412" to="1170526404" name="Im Zellersgrund" priority="3" type="highway.residential" numLanes="1" speed="13.89" shape="7790.22,9512.04 7786.97,9557.84 7788.03,9565.48 7791.40,9570.92 7798.22,9575.64 7805.68,9580.82 7809.25,9584.57 7811.77,9589.43 7823.89,9631.23 7826.04,9638.62" disallow="tram rail_urban rail rail_electric rail_fast ship">
        <lane index="0">
            <param key="origId" value="101368446"/>
        </lane>
    </edge>
    <edge id="-101368453#1" from="1170526412" to="cluster_1423214469_258351757" name="Friedloser Straße" priority="3" type="highway.residential" numLanes="1" speed="13.89" shape="7790.22,9512.04 7841.99,9492.86" disallow="tram rail_urban rail rail_electric rail_fast ship">
        <lane index="0">
            <param key="origId" value="101368453"/>
        </lane>
        <param key="origTo" value="1423214469"/>
    </edge>
    <edge id="-101368453#2" from="1170526407" to="1170526412" name="Friedloser Straße" priority="3" type="highway.residential" numLanes="1" speed="13.89" shape="7754.38,9547.80 7763.93,9521.54 7790.22,9512.04" disallow="tram rail_urban rail rail_electric rail_fast ship">
        <lane index="0">
            <param key="origId" value="101368453"/>
        </lane>
    </edge>
    <edge id="-101371626#0" from="cluster_283039779_4406635034" to="259997121" name="Hainstraße" priority="11" type="highway.secondary" numLanes="2" speed="13.89" shape="6860.90,7546.56 6911.91,7567.27" disallow="tram rail_urban rail rail_electric rail_fast ship">
        <lane index="0">
            <param key="origId" value="101371626"/>
        </lane>
        <lane index="1">
            <param key="origId" value="101371626"/>
        </lane>
        <param key="origFrom" value="283039779"/>
    </edge>
    <edge id="-101371626#1" from="cluster_1205630662_1207289208_1423165912_4406635032_8369732650" to="cluster_283039779_4406635034" name="Hainstraße" priority="11" type="highway.secondary" numLanes="2" speed="13.89" shape="6757.71,7517.27 6808.39,7530.00 6860.90,7546.56" disallow="tram rail_urban rail rail_electric rail_fast ship">
        <lane index="0">
            <param key="origId" value="101371626"/>
        </lane>
        <lane index="1">
            <param key="origId" value="101371626"/>
        </lane>
        <param key="origFrom" value="1205630662"/>
        <param key="origTo" value="283039779"/>
    </edge>
    <edge id="-101371626#3" from="cluster_1704096695_1704096697" to="cluster_1205630662_1207289208_1423165912_4406635032_8369732650" name="Hainstraße" priority="11" type="highway.secondary" numLanes="2" speed="13.89" shape="6706.63,7507.20 6718.75,7509.45 6748.46,7514.98" disallow="tram rail_urban rail rail_electric rail_fast ship">
        <lane index="0">
            <param key="origId" value="101371626"/>
        </lane>
        <lane index="1">
            <param key="origId" value="101371626"/>
        </lane>
        <param key="origFrom" value="1704096697"/>
        <param key="origTo" value="1207289208"/>
    </edge>
    <edge id="-101371626#4" from="cluster_1205630710_2015016993_2015016997_2015017004_2517994111_257574861_7819925024" to="cluster_1704096695_1704096697" name="Hainstraße" priority="11" type="highway.secondary" numLanes="2" speed="13.89" shape="6631.81,7494.96 6669.42,7500.41 6706.63,7507.20" disallow="tram rail_urban rail rail_electric rail_fast ship">
        <lane index="0">
            <param key="origId" value="101371626"/>
        </lane>
        <lane index="1">
            <param key="origId" value="101371626"/>
        </lane>
        <param key="origFrom" value="2015017004"/>
        <param key="origTo" value="1704096697"/>
    </edge>
    <edge id="-101374520" from="1170610875" to="1860112838" name="Im Forst" priority="3" type="highway.residential" numLanes="1" speed="8.33" shape="11118.65,8037.65 11119.45,8068.75 11122.24,8075.21 11128.35,8078.40 11138.85,8078.37 11184.48,8070.39 11210.35,8063.41 11342.04,8016.51" disallow="tram rail_urban rail rail_electric rail_fast ship">
        <lane index="0">
            <param key="origId" value="101374520"/>
        </lane>
    </edge>
    <edge id="-101374521#0" from="cluster_1170610810_1170611112" to="1170611015" name="Biengraben" priority="3" type="highway.residential" numLanes="1" speed="13.89" shape="10720.24,7827.73 10713.23,7848.93" disallow="tram rail_urban rail rail_electric rail_fast ship">
        <lane index="0">
            <param key="origId" value="101374521"/>
        </lane>
        <param key="origFrom" value="1170611112"/>
    </edge>
    <edge id="-101374521#2" from="1860088827" to="cluster_1170610810_1170611112" name="Biengraben" priority="3" type="highway.residential" numLanes="1" speed="13.89" shape="10729.20,7747.51 10731.51,7760.54 10730.88,7779.54 10728.68,7800.82 10722.26,7821.97" disallow="tram rail_urban rail rail_electric rail_fast ship">
        <lane index="0">
            <param key="origId" value="101374521"/>
        </lane>
        <param key="origTo" value="1170610810"/>
    </edge>
    <edge id="-101374522#0" from="1857141843" to="1170611244" name="Am Seerück" priority="3" type="highway.residential" numLanes="1" speed="8.33" shape="11468.86,9315.62 11476.97,9326.10 11494.83,9341.35 11595.86,9404.61" disallow="tram rail_urban rail rail_electric rail_fast ship">
        <lane index="0">
            <param key="origId" value="101374522"/>
        </lane>
    </edge>
    <edge id="-101374522#1" from="cluster_1170611239_1857141842_296320445" to="1857141843" name="Am Seerück" priority="3" type="highway.residential" numLanes="1" speed="8.33" shape="11461.87,9294.44 11468.86,9315.62" disallow="tram rail_urban rail rail_electric rail_fast ship">
        <lane index="0">
            <param key="origId" value="101374522"/>
        </lane>
        <param key="origFrom" value="1857141842"/>
    </edge>
    <edge id="-101374523#0" from="cluster_1858794172_1860088872" to="1170611076" name="Am Brunnen" priority="3" type="highway.residential" numLanes="1" speed="8.33" shape="10539.11,7856.41 10555.04,7846.77 10563.30,7842.15 10573.26,7837.64" disallow="tram rail_urban rail rail_electric rail_fast ship">
        <lane index="0">
            <param key="origId" value="101374523"/>
        </lane>
        <param key="origFrom" value="1858794172"/>
    </edge>
    <edge id="-101374523#2" from="1719461438" to="cluster_1858794172_1860088872" name="Am Brunnen" priority="3" type="highway.residential" numLanes="1" speed="8.33" shape="10359.52,7887.48 10380.54,7891.00 10402.83,7892.66 10427.75,7891.71 10450.66,7887.61 10500.30,7872.44 10531.28,7860.20" disallow="tram rail_urban rail rail_electric rail_fast ship">
        <lane index="0">
            <param key="origId" value="101374523"/>
        </lane>
        <param key="origTo" value="1860088872"/>
    </edge>
    <edge id="-101374523#3" from="cluster_1170610905_2421325896_296320406_3281721216_3281721218" to="1719461438" name="Am Brunnen" priority="3" type="highway.residential" numLanes="1" speed="8.33" shape="10331.78,7881.20 10343.95,7883.81 10359.52,7887.48" disallow="tram rail_urban rail rail_electric rail_fast ship">
        <lane index="0">
            <param key="origId" value="101374523"/>
        </lane>
        <param key="origFrom" value="2421325896"/>
    </edge>
    <edge id="-101374524#0" from="1170610875" to="372811914" name="Im Forst" priority="3" type="highway.residential" numLanes="1" speed="8.33" shape="11118.65,8037.65 11049.77,8042.36 10984.47,8043.08" disallow="tram rail_urban rail rail_electric rail_fast ship">
        <lane index="0">
            <param key="origId" value="101374524"/>
        </lane>
    </edge>
    <edge id="-101374524#1" from="1170610993" to="1170610875" name="Im Forst" priority="3" type="highway.residential" numLanes="1" speed="8.33" shape="11327.47,7969.41 11199.91,8023.17 11181.71,8029.40 11118.65,8037.65" disallow="tram rail_urban rail rail_electric rail_fast ship">
        <lane index="0">
            <param key="origId" value="101374524"/>
        </lane>
    </edge>
    <edge id="-101374525#0" from="1170611044" to="cluster_1170610810_1170611112" name="Oberweg" priority="3" type="highway.residential" numLanes="1" speed="8.33" shape="10578.39,7815.96 10720.24,7827.73" disallow="tram rail_urban rail rail_electric rail_fast ship">
        <lane index="0">
            <param key="origId" value="101374525"/>
        </lane>
        <param key="origTo" value="1170611112"/>
    </edge>
    <edge id="-101374525#1" from="1170611212" to="1170611044" name="Oberweg" priority="3" type="highway.residential" numLanes="1" speed="8.33" shape="10528.23,7832.13 10535.13,7824.03 10543.33,7820.54 10551.80,7819.55 10564.98,7817.41 10578.39,7815.96" disallow="tram rail_urban rail rail_electric rail_fast ship">
        <lane index="0">
            <param key="origId" value="101374525"/>
        </lane>
    </edge>
    <edge id="-101374526" from="1170611071" to="1170610941" name="Über der Hallstadt" priority="3" type="highway.residential" numLanes="1" speed="13.89" shape="11124.38,7792.30 11062.39,7773.25 11052.26,7768.79 11046.73,7761.39 10982.11,7639.27" disallow="tram rail_urban rail rail_electric rail_fast ship">
        <lane index="0">
            <param key="origId" value="101374526"/>
        </lane>
    </edge>
    <edge id="-101374530#1" from="1170611100" to="cluster_1170611205_2421325914" name="Wiesenstraße" priority="3" type="highway.residential" numLanes="1" speed="8.33" shape="10058.29,7991.36 10068.67,8037.88 10070.37,8045.52 10082.48,8060.56 10101.45,8077.12 10110.69,8088.95 10119.09,8104.09 10137.06,8156.45 10144.38,8165.43 10154.00,8175.35 10168.72,8182.93 10201.59,8193.86" disallow="tram rail_urban rail rail_electric rail_fast ship">
        <lane index="0">
            <param key="origId" value="101374530"/>
        </lane>
        <param key="origTo" value="2421325914"/>
    </edge>
    <edge id="-101374530#2" from="2577028635" to="1170611100" name="Wiesenstraße" priority="3" type="highway.residential" numLanes="1" speed="8.33" disallow="tram rail_urban rail rail_electric rail_fast ship">
        <lane index="0">
            <param key="origId" value="101374530"/>
        </lane>
    </edge>
    <edge id="-101374530#3" from="2421325900" to="2577028635" name="Wiesenstraße" priority="3" type="highway.residential" numLanes="1" speed="8.33" disallow="tram rail_urban rail rail_electric rail_fast ship">
        <lane index="0">
            <param key="origId" value="101374530"/>
        </lane>
    </edge>
    <edge id="-101374530#4" from="1170610895" to="2421325900" name="Wiesenstraße" priority="3" type="highway.residential" numLanes="1" speed="8.33" disallow="tram rail_urban rail rail_electric rail_fast ship">
        <lane index="0">
            <param key="origId" value="101374530"/>
        </lane>
    </edge>
    <edge id="-101374531#0" from="1170610785" to="1170611100" name="Im Lotzenfeld" priority="3" type="highway.residential" numLanes="1" speed="8.33" disallow="tram rail_urban rail rail_electric rail_fast ship">
        <lane index="0">
            <param key="origId" value="101374531"/>
        </lane>
    </edge>
    <edge id="-101374531#1" from="cluster_1170611125_2421325912" to="1170610785" name="Im Lotzenfeld" priority="3" type="highway.residential" numLanes="1" speed="8.33" shape="10274.41,8013.36 10260.51,8010.10 10180.67,8001.77" disallow="tram rail_urban rail rail_electric rail_fast ship">
        <lane index="0">
            <param key="origId" value="101374531"/>
        </lane>
        <param key="origFrom" value="2421325912"/>
    </edge>
    <edge id="-101374532" from="367999509" to="1170610860" name="Rosenweg" priority="3" type="highway.residential" numLanes="1" speed="8.33" disallow="tram rail_urban rail rail_electric rail_fast ship">
        <lane index="0">
            <param key="origId" value="101374532"/>
        </lane>
    </edge>
    <edge id="-101374533#0" from="1170611059" to="1858741625" name="Sölzerhöfe" priority="1" type="highway.service" numLanes="1" speed="5.56" shape="10151.03,8443.96 10177.82,8467.96 10195.37,8491.69 10204.22,8514.61" allow="pedestrian delivery bicycle">
        <lane index="0">
            <param key="origId" value="101374533"/>
        </lane>
    </edge>
    <edge id="-101374533#1" from="1170610969" to="1170611059" name="Sölzerhöfe" priority="1" type="highway.service" numLanes="1" speed="5.56" allow="pedestrian delivery bicycle">
        <lane index="0">
            <param key="origId" value="101374533"/>
        </lane>
    </edge>
    <edge id="-101374533#2" from="1170610781" to="1170610969" name="Sölzerhöfe" priority="1" type="highway.service" numLanes="1" speed="5.56" allow="pedestrian delivery bicycle">
        <lane index="0">
            <param key="origId" value="101374533"/>
        </lane>
    </edge>
    <edge id="-101374534#0" from="1170611206" to="1860088868" name="Höhenstraße" priority="3" type="highway.residential" numLanes="1" speed="13.89" shape="11046.92,7859.94 11008.45,7856.75 10977.63,7850.26 10943.24,7837.96" disallow="tram rail_urban rail rail_electric rail_fast ship">
        <lane index="0">
            <param key="origId" value="101374534"/>
        </lane>
    </edge>
    <edge id="-101374534#1" from="807098143" to="1170611206" name="Höhenstraße" priority="3" type="highway.residential" numLanes="1" speed="13.89" disallow="tram rail_urban rail rail_electric rail_fast ship">
        <lane index="0">
            <param key="origId" value="101374534"/>
        </lane>
    </edge>
    <edge id="-101374535#1" from="1170610785" to="cluster_1170611130_2421325898_2421581641_807098068" name="Rasenweg" priority="3" type="highway.residential" numLanes="1" speed="8.33" shape="10180.67,8001.77 10190.60,7888.10" disallow="tram rail_urban rail rail_electric rail_fast ship">
        <lane index="0">
            <param key="origId" value="101374535"/>
        </lane>
        <param key="origTo" value="2421325898"/>
    </edge>
    <edge id="-101374537" from="1170610999" to="1170610929" name="Sölzerhöfe" priority="1" type="highway.service" numLanes="1" speed="5.56" allow="pedestrian delivery bicycle">
        <lane index="0">
            <param key="origId" value="101374537"/>
        </lane>
    </edge>
    <edge id="-101374538#1" from="1170611147" to="cluster_1170611113_3259795868" priority="1" type="highway.service" numLanes="1" speed="5.56" shape="11154.31,8891.79 11218.47,8844.42" allow="pedestrian delivery bicycle">
        <lane index="0">
            <param key="origId" value="101374538"/>
        </lane>
        <param key="origTo" value="3259795868"/>
    </edge>
    <edge id="-101374540#0" from="286061189" to="1307698580" priority="4" type="highway.unclassified" numLanes="1" speed="13.89" shape="9734.43,8814.71 9726.63,8813.29 9718.76,8814.54 9696.25,8826.06 9635.09,8857.90 9525.70,8906.86 9404.42,8963.19 9266.80,9066.00 9203.56,9121.35 9196.64,9138.06 9189.06,9202.05 9178.28,9235.28 9169.87,9248.63" disallow="tram rail_urban rail rail_electric rail_fast ship">
        <lane index="0">
            <param key="origId" value="101374540"/>
        </lane>
    </edge>
    <edge id="-101374540#1" from="1307962174" to="286061189" priority="4" type="highway.unclassified" numLanes="1" speed="13.89" shape="9983.81,8672.41 9941.18,8686.87 9922.44,8697.36 9882.13,8729.10 9866.59,8739.13 9815.81,8773.48 9754.78,8812.87 9745.50,8815.66 9734.43,8814.71" disallow="tram rail_urban rail rail_electric rail_fast ship">
        <lane index="0">
            <param key="origId" value="101374540"/>
        </lane>
    </edge>
    <edge id="-101390606#0" from="1423089068" to="1423089072" name="Kielsbergstraße" priority="3" type="highway.residential" numLanes="1" speed="8.33" shape="3334.14,4405.75 3327.09,4417.94 3321.24,4435.91 3315.57,4460.81" disallow="tram rail_urban rail rail_electric rail_fast ship">
        <lane index="0">
            <param key="origId" value="101390606"/>
        </lane>
    </edge>
    <edge id="-101390606#1" from="1170848086" to="1423089068" name="Kielsbergstraße" priority="3" type="highway.residential" numLanes="1" speed="8.33" shape="3390.64,4385.72 3359.14,4390.04 3345.88,4396.07 3334.14,4405.75" disallow="tram rail_urban rail rail_electric rail_fast ship">
        <lane index="0">
            <param key="origId" value="101390606"/>
        </lane>
    </edge>
    <edge id="-101390606#2" from="1172136115" to="1170848086" name="Kielsbergstraße" priority="3" type="highway.residential" numLanes="1" speed="8.33" shape="3477.89,4403.29 3458.09,4387.74 3446.25,4384.35 3414.09,4384.14 3390.64,4385.72" disallow="tram rail_urban rail rail_electric rail_fast ship">
        <lane index="0">
            <param key="origId" value="101390606"/>
        </lane>
    </edge>
    <edge id="-101390606#3" from="1423089069" to="1172136115" name="Kielsbergstraße" priority="3" type="highway.residential" numLanes="1" speed="8.33" disallow="tram rail_urban rail rail_electric rail_fast ship">
        <lane index="0">
            <param key="origId" value="101390606"/>
        </lane>
    </edge>
    <edge id="-101513321" from="1172136115" to="1170848050" name="Talblick" priority="3" type="highway.residential" numLanes="1" speed="8.33" shape="3477.89,4403.29 3530.92,4334.33 3534.45,4328.47 3535.31,4318.34 3532.98,4311.76 3528.37,4306.57 3522.42,4302.87 3515.58,4302.92 3408.58,4309.25" disallow="tram rail_urban rail rail_electric rail_fast ship">
        <lane index="0">
            <param key="origId" value="101513321"/>
        </lane>
    </edge>
    <edge id="-101988386#0" from="1177409080" to="1177409149" priority="1" type="highway.service" numLanes="1" speed="5.56" shape="6891.64,6874.09 6900.13,6876.20 6903.58,6875.51 6906.10,6873.59 6923.28,6834.72" allow="pedestrian delivery bicycle">
        <lane index="0">
            <param key="origId" value="101988386"/>
        </lane>
    </edge>
    <edge id="-101988386#1" from="1177409199" to="1177409080" priority="1" type="highway.service" numLanes="1" speed="5.56" allow="pedestrian delivery bicycle">
        <lane index="0">
            <param key="origId" value="101988386"/>
        </lane>
    </edge>
    <edge id="-101988386#2" from="cluster_1177409127_1177409176" to="1177409199" priority="1" type="highway.service" numLanes="1" speed="5.56" shape="6886.78,6827.24 6871.43,6861.19 6870.83,6863.49 6871.21,6865.84 6872.22,6868.15 6874.34,6869.79 6878.60,6870.85" allow="pedestrian delivery bicycle">
        <lane index="0">
            <param key="origId" value="101988386"/>
        </lane>
        <param key="origFrom" value="1177409127"/>
    </edge>
    <edge id="-101988388" from="1177409080" to="1177409166" priority="1" type="highway.service" numLanes="1" speed="5.56" allow="pedestrian delivery bicycle">
        <lane index="0">
            <param key="origId" value="101988388"/>
        </lane>
    </edge>
    <edge id="-101988390" from="1177409199" to="1177409205" priority="1" type="highway.service" numLanes="1" speed="5.56" allow="pedestrian delivery bicycle">
        <lane index="0">
            <param key="origId" value="101988390"/>
        </lane>
    </edge>
    <edge id="-101988403#0" from="1177409149" to="1177409161" priority="1" type="highway.service" numLanes="1" speed="5.56" allow="pedestrian delivery bicycle">
        <lane index="0">
            <param key="origId" value="101988403"/>
        </lane>
    </edge>
    <edge id="-101988403#1" from="1177409166" to="1177409149" priority="1" type="highway.service" numLanes="1" speed="5.56" allow="pedestrian delivery bicycle">
        <lane index="0">
            <param key="origId" value="101988403"/>
        </lane>
    </edge>
    <edge id="-101988403#10" from="1902145409" to="1902145449" priority="1" type="highway.service" numLanes="1" speed="5.56" shape="6821.20,6806.34 6817.74,6806.04 6814.68,6805.98 6811.59,6807.31 6810.04,6808.58 6800.20,6826.23 6799.57,6829.90 6800.14,6832.13 6801.89,6833.84 6806.47,6835.90" allow="pedestrian delivery bicycle">
        <lane index="0">
            <param key="origId" value="101988403"/>
        </lane>
    </edge>
    <edge id="-101988403#11" from="1902145410" to="1902145409" priority="1" type="highway.service" numLanes="1" speed="5.56" allow="pedestrian delivery bicycle">
        <lane index="0">
            <param key="origId" value="101988403"/>
        </lane>
    </edge>
    <edge id="-101988403#12" from="1902145414" to="1902145410" priority="1" type="highway.service" numLanes="1" speed="5.56" allow="pedestrian delivery bicycle">
        <lane index="0">
            <param key="origId" value="101988403"/>
        </lane>
    </edge>
    <edge id="-101988403#13" from="1902145416" to="1902145414" priority="1" type="highway.service" numLanes="1" speed="5.56" allow="pedestrian delivery bicycle">
        <lane index="0">
            <param key="origId" value="101988403"/>
        </lane>
    </edge>
    <edge id="-101988403#14" from="1177409121" to="1902145416" priority="1" type="highway.service" numLanes="1" speed="5.56" allow="pedestrian delivery bicycle">
        <lane index="0">
            <param key="origId" value="101988403"/>
        </lane>
    </edge>
    <edge id="-101988403#15" from="cluster_1177409127_1177409176" to="1177409121" priority="1" type="highway.service" numLanes="1" speed="5.56" shape="6889.15,6826.80 6885.44,6824.28 6882.69,6821.23 6879.12,6814.68 6875.15,6811.74 6871.48,6810.79" allow="pedestrian delivery bicycle">
        <lane index="0">
            <param key="origId" value="101988403"/>
        </lane>
        <param key="origFrom" value="1177409176"/>
    </edge>
    <edge id="-101988403#2" from="1177409205" to="1177409166" priority="1" type="highway.service" numLanes="1" speed="5.56" allow="pedestrian delivery bicycle">
        <lane index="0">
            <param key="origId" value="101988403"/>
        </lane>
    </edge>
    <edge id="-101988403#3" from="cluster_1177409127_1177409176" to="1177409205" priority="1" type="highway.service" numLanes="1" speed="5.56" shape="6889.15,6826.80 6897.24,6828.45" allow="pedestrian delivery bicycle">
        <lane index="0">
            <param key="origId" value="101988403"/>
        </lane>
        <param key="origFrom" value="1177409176"/>
    </edge>
    <edge id="-101988403#5" from="1902145452" to="cluster_1177409127_1177409176" priority="1" type="highway.service" numLanes="1" speed="5.56" shape="6856.10,6841.40 6864.75,6836.14 6878.29,6829.60 6886.78,6827.24" allow="pedestrian delivery bicycle">
        <lane index="0">
            <param key="origId" value="101988403"/>
        </lane>
        <param key="origTo" value="1177409127"/>
    </edge>
    <edge id="-101988403#6" from="1902145458" to="1902145452" priority="1" type="highway.service" numLanes="1" speed="5.56" shape="6838.16,6849.28 6840.52,6849.85 6845.17,6849.45 6849.99,6846.43 6854.73,6842.44 6856.10,6841.40" allow="pedestrian delivery bicycle">
        <lane index="0">
            <param key="origId" value="101988403"/>
        </lane>
    </edge>
    <edge id="-101988403#7" from="1902145453" to="1902145458" priority="1" type="highway.service" numLanes="1" speed="5.56" shape="6827.22,6845.23 6834.08,6848.32 6838.16,6849.28" allow="pedestrian delivery bicycle">
        <lane index="0">
            <param key="origId" value="101988403"/>
        </lane>
    </edge>
    <edge id="-101988403#8" from="1902145451" to="1902145453" priority="1" type="highway.service" numLanes="1" speed="5.56" allow="pedestrian delivery bicycle">
        <lane index="0">
            <param key="origId" value="101988403"/>
        </lane>
    </edge>
    <edge id="-101988403#9" from="1902145449" to="1902145451" priority="1" type="highway.service" numLanes="1" speed="5.56" allow="pedestrian delivery bicycle">
        <lane index="0">
            <param key="origId" value="101988403"/>
        </lane>
    </edge>