<?xml version="1.0" encoding="UTF-8"?>

<!-- generated on 2021-12-20 16:18:48 by Eclipse SUMO netconvert Version 1.10.0
<configuration xmlns:xsi="http://www.w3.org/2001/XMLSchema-instance" xsi:noNamespaceSchemaLocation="http://sumo.dlr.de/xsd/netconvertConfiguration.xsd">

    <input>
        <sumo-net-file value="../osm/osm.net.xml"/>
    </input>

    <output>
        <plain-output-prefix value="../osm/osm"/>
        <output.street-names value="true"/>
    </output>

    <processing>
        <geometry.min-radius.fix.railways value="false"/>
        <geometry.max-grade.fix value="false"/>
        <offset.disable-normalization value="true"/>
        <roundabouts.guess value="false"/>
        <lefthand value="false"/>
    </processing>

    <junctions>
        <no-turnarounds value="true"/>
        <junctions.corner-detail value="5"/>
        <junctions.limit-turn-speed value="5.5"/>
        <rectangular-lane-cut value="false"/>
    </junctions>

    <pedestrian>
        <walkingareas value="false"/>
    </pedestrian>

    <report>
        <aggregate-warnings value="5"/>
    </report>

</configuration>
-->

<connections version="1.9" xmlns:xsi="http://www.w3.org/2001/XMLSchema-instance" xsi:noNamespaceSchemaLocation="http://sumo.dlr.de/xsd/connections_file.xsd">
    <connection from="-100622984#0" to="-127529207#1" fromLane="0" toLane="0"/>
    <connection from="-100622984#0" to="127529207#2" fromLane="0" toLane="1"/>
    <connection from="-100622984#0" to="100622984#0" fromLane="0" toLane="0"/>

    <connection from="-100622984#1" to="-100622984#0" fromLane="0" toLane="0"/>
    <connection from="-100622984#1" to="-449025698" fromLane="0" toLane="0"/>
    <connection from="-100622984#1" to="100622984#1" fromLane="0" toLane="0"/>

    <connection from="-100655979" to="-159818666#0" fromLane="0" toLane="0"/>
    <connection from="-100655979" to="159818666#1" fromLane="0" toLane="0"/>
    <connection from="-100655979" to="100655979" fromLane="0" toLane="0"/>

    <connection from="-100655982" to="-25805448#1" fromLane="0" toLane="0"/>
    <connection from="-100655982" to="25805448#2" fromLane="0" toLane="0"/>
    <connection from="-100655982" to="100655982" fromLane="0" toLane="0"/>

    <connection from="-100655989#0" to="151585862#1" fromLane="0" toLane="0"/>
    <connection from="-100655989#0" to="-151585862#0" fromLane="0" toLane="0"/>
    <connection from="-100655989#0" to="100655989#0" fromLane="0" toLane="0"/>

    <connection from="-100655989#1" to="-100655989#0" fromLane="0" toLane="0"/>
    <connection from="-100655989#1" to="100655989#1" fromLane="0" toLane="0"/>

    <connection from="-100655990" to="100655990" fromLane="0" toLane="0"/>

    <connection from="-101368427" to="159989038" fromLane="0" toLane="0"/>
    <connection from="-101368427" to="159989038" fromLane="1" toLane="1"/>
    <connection from="-101368427" to="101368427" fromLane="1" toLane="0"/>

    <connection from="-101368435" to="101368435" fromLane="0" toLane="0"/>

    <connection from="-101368444" to="-101368427" fromLane="0" toLane="0"/>
    <connection from="-101368444" to="-101368427" fromLane="0" toLane="1"/>
    <connection from="-101368444" to="-34750804" fromLane="0" toLane="0"/>
    <connection from="-101368444" to="101368444" fromLane="0" toLane="1"/>

    <connection from="-101368446#0" to="-35003540#1" fromLane="0" toLane="0"/>
    <connection from="-101368446#0" to="35003540#2" fromLane="0" toLane="0"/>
    <connection from="-101368446#0" to="101368446#0" fromLane="0" toLane="0"/>

    <connection from="-101368446#1" to="-101368446#0" fromLane="0" toLane="0"/>
    <connection from="-101368446#1" to="-101368435" fromLane="0" toLane="0"/>
    <connection from="-101368446#1" to="101368446#1" fromLane="0" toLane="0"/>

    <connection from="-101368453#1" to="128899606#1" fromLane="0" toLane="0"/>
    <connection from="-101368453#1" to="41050375#0" fromLane="0" toLane="0"/>
    <connection from="-101368453#1" to="101368429" fromLane="0" toLane="1"/>
    <connection from="-101368453#1" to="101368453#1" fromLane="0" toLane="0"/>

    <connection from="-101368453#2" to="-101368453#1" fromLane="0" toLane="0"/>
    <connection from="-101368453#2" to="-101368446#1" fromLane="0" toLane="0"/>
    <connection from="-101368453#2" to="101368453#2" fromLane="0" toLane="0"/>

    <connection from="-101371626#0" to="23979555#0" fromLane="0" toLane="0"/>

    <connection from="-101371626#1" to="-443014117#7" fromLane="0" toLane="0"/>
    <connection from="-101371626#1" to="-25945928#3" fromLane="0" toLane="0"/>
    <connection from="-101371626#1" to="443014117#8" fromLane="0" toLane="0"/>
    <connection from="-101371626#1" to="-101371626#0" fromLane="0" toLane="0"/>
    <connection from="-101371626#1" to="-101371626#0" fromLane="1" toLane="1"/>
    <connection from="-101371626#1" to="101371626#1" fromLane="1" toLane="1"/>

    <connection from="-101371626#3" to="-443014117#6" fromLane="0" toLane="0"/>
    <connection from="-101371626#3" to="443014117#7" fromLane="0" toLane="0"/>
    <connection from="-101371626#3" to="-101371626#1" fromLane="0" toLane="0"/>
    <connection from="-101371626#3" to="-197638009#1" fromLane="0" toLane="0"/>
    <connection from="-101371626#3" to="-85131428#1" fromLane="1" toLane="0"/>
    <connection from="-101371626#3" to="197638009#3" fromLane="1" toLane="0"/>
    <connection from="-101371626#3" to="101371626#3" fromLane="1" toLane="1"/>

    <connection from="-101371626#4" to="-443014117#5" fromLane="0" toLane="0"/>
    <connection from="-101371626#4" to="-158179941#0" fromLane="0" toLane="0"/>
    <connection from="-101371626#4" to="443014117#6" fromLane="0" toLane="0"/>
    <connection from="-101371626#4" to="-101371626#3" fromLane="0" toLane="0"/>
    <connection from="-101371626#4" to="-101371626#3" fromLane="1" toLane="1"/>
    <connection from="-101371626#4" to="101371626#4" fromLane="1" toLane="1"/>

    <connection from="-101374520" to="-175422505" fromLane="0" toLane="0"/>
    <connection from="-101374520" to="101374520" fromLane="0" toLane="0"/>

    <connection from="-101374521#0" to="321421861#3" fromLane="0" toLane="0"/>
    <connection from="-101374521#0" to="-321421861#2" fromLane="0" toLane="0"/>
    <connection from="-101374521#0" to="101374521#0" fromLane="0" toLane="0"/>

    <connection from="-101374521#2" to="-175418945" fromLane="0" toLane="0"/>
    <connection from="-101374521#2" to="-101374521#0" fromLane="0" toLane="0"/>
    <connection from="-101374521#2" to="101374525#0" fromLane="0" toLane="0"/>
    <connection from="-101374521#2" to="101374521#2" fromLane="0" toLane="0"/>

    <connection from="-101374522#0" to="-175070743#2" fromLane="0" toLane="0"/>
    <connection from="-101374522#0" to="101374522#0" fromLane="0" toLane="0"/>

    <connection from="-101374522#1" to="-101374522#0" fromLane="0" toLane="0"/>
    <connection from="-101374522#1" to="189043325" fromLane="0" toLane="0"/>
    <connection from="-101374522#1" to="101374522#1" fromLane="0" toLane="0"/>

    <connection from="-101374523#0" to="-321421861#1" fromLane="0" toLane="0"/>
    <connection from="-101374523#0" to="321421861#2" fromLane="0" toLane="0"/>
    <connection from="-101374523#0" to="101374523#0" fromLane="0" toLane="0"/>

    <connection from="-101374523#2" to="-101374523#0" fromLane="0" toLane="0"/>
    <connection from="-101374523#2" to="-175418942" fromLane="0" toLane="0"/>
    <connection from="-101374523#2" to="175418948#0" fromLane="0" toLane="0"/>
    <connection from="-101374523#2" to="101374523#2" fromLane="0" toLane="0"/>

    <connection from="-101374523#3" to="-101374523#2" fromLane="0" toLane="0"/>
    <connection from="-101374523#3" to="-159850124#5" fromLane="0" toLane="0"/>
    <connection from="-101374523#3" to="101374523#3" fromLane="0" toLane="0"/>

    <connection from="-101374524#0" to="66758076" fromLane="0" toLane="0"/>
    <connection from="-101374524#0" to="-33055444#2" fromLane="0" toLane="0"/>
    <connection from="-101374524#0" to="101374524#0" fromLane="0" toLane="0"/>

    <connection from="-101374524#1" to="-101374520" fromLane="0" toLane="0"/>
    <connection from="-101374524#1" to="-101374524#0" fromLane="0" toLane="0"/>
    <connection from="-101374524#1" to="101374524#1" fromLane="0" toLane="0"/>

    <connection from="-101374525#0" to="101374521#2" fromLane="0" toLane="0"/>
    <connection from="-101374525#0" to="-175418945" fromLane="0" toLane="0"/>
    <connection from="-101374525#0" to="-101374521#0" fromLane="0" toLane="0"/>
    <connection from="-101374525#0" to="101374525#0" fromLane="0" toLane="0"/>

    <connection from="-101374525#1" to="175418946" fromLane="0" toLane="0"/>
    <connection from="-101374525#1" to="-101374525#0" fromLane="0" toLane="0"/>
    <connection from="-101374525#1" to="101374525#1" fromLane="0" toLane="0"/>

    <connection from="-101374526" to="101374526" fromLane="0" toLane="0"/>

    <connection from="-101374530#1" to="233802133#2" fromLane="0" toLane="0"/>
    <connection from="-101374530#1" to="-321421862#3" fromLane="0" toLane="0"/>
    <connection from="-101374530#1" to="321421862#4" fromLane="0" toLane="0"/>
    <connection from="-101374530#1" to="-233802133#1" fromLane="0" toLane="0"/>
    <connection from="-101374530#1" to="101374530#1" fromLane="0" toLane="0"/>

    <connection from="-101374530#2" to="101374531#0" fromLane="0" toLane="0"/>
    <connection from="-101374530#2" to="-101374530#1" fromLane="0" toLane="0"/>
    <connection from="-101374530#2" to="101374530#2" fromLane="0" toLane="0"/>

    <connection from="-101374530#3" to="-101374530#2" fromLane="0" toLane="0"/>
    <connection from="-101374530#3" to="251488305" fromLane="0" toLane="0"/>
    <connection from="-101374530#3" to="101374530#3" fromLane="0" toLane="0"/>

    <connection from="-101374530#4" to="-233802121#1" fromLane="0" toLane="0"/>
    <connection from="-101374530#4" to="-101374530#3" fromLane="0" toLane="0"/>
    <connection from="-101374530#4" to="233802121#2" fromLane="0" toLane="0"/>
    <connection from="-101374530#4" to="101374530#4" fromLane="0" toLane="0"/>

    <connection from="-101374531#0" to="-101374530#1" fromLane="0" toLane="0"/>
    <connection from="-101374531#0" to="101374530#2" fromLane="0" toLane="0"/>
    <connection from="-101374531#0" to="101374531#0" fromLane="0" toLane="0"/>

    <connection from="-101374531#1" to="-101374531#0" fromLane="0" toLane="0"/>
    <connection from="-101374531#1" to="-101374535#1" fromLane="0" toLane="0"/>
    <connection from="-101374531#1" to="101374531#1" fromLane="0" toLane="0"/>

    <connection from="-101374532" to="101374532" fromLane="0" toLane="0"/>

    <connection from="-101374533#0" to="101374533#0" fromLane="0" toLane="0"/>

    <connection from="-101374533#1" to="115882209#2" fromLane="0" toLane="0"/>
    <connection from="-101374533#1" to="-101374533#0" fromLane="0" toLane="0"/>
    <connection from="-101374533#1" to="-115882209#1" fromLane="0" toLane="0"/>
    <connection from="-101374533#1" to="101374533#1" fromLane="0" toLane="0"/>

    <connection from="-101374533#2" to="136061929#3" fromLane="0" toLane="0"/>
    <connection from="-101374533#2" to="-101374533#1" fromLane="0" toLane="0"/>
    <connection from="-101374533#2" to="-136061929#2" fromLane="0" toLane="0"/>
    <connection from="-101374533#2" to="101374533#2" fromLane="0" toLane="0"/>

    <connection from="-101374534#0" to="101374534#0" fromLane="0" toLane="0"/>

    <connection from="-101374534#1" to="-101374534#0" fromLane="0" toLane="0"/>
    <connection from="-101374534#1" to="175418951" fromLane="0" toLane="0"/>
    <connection from="-101374534#1" to="101374534#1" fromLane="0" toLane="0"/>

    <connection from="-101374535#1" to="233802121#1" fromLane="0" toLane="0"/>
    <connection from="-101374535#1" to="-67332191#4" fromLane="0" toLane="0"/>
    <connection from="-101374535#1" to="-233832346#2" fromLane="0" toLane="0"/>
    <connection from="-101374535#1" to="66758074#1" fromLane="0" toLane="0"/>
    <connection from="-101374535#1" to="233832346#3" fromLane="0" toLane="0"/>
    <connection from="-101374535#1" to="67332191#6" fromLane="0" toLane="0"/>
    <connection from="-101374535#1" to="-233802121#0" fromLane="0" toLane="0"/>
    <connection from="-101374535#1" to="101374535#1" fromLane="0" toLane="0"/>

    <connection from="-101374537" to="101374537" fromLane="0" toLane="0"/>

    <connection from="-101374538#1" to="319555423#1" fromLane="0" toLane="0"/>
    <connection from="-101374538#1" to="-318085257#2" fromLane="0" toLane="0"/>
    <connection from="-101374538#1" to="318085257#3" fromLane="0" toLane="0"/>
    <connection from="-101374538#1" to="-319555423#0" fromLane="0" toLane="0"/>
    <connection from="-101374538#1" to="101374538#1" fromLane="0" toLane="0"/>

    <connection from="-101374540#0" to="760113835" fromLane="0" toLane="0"/>
    <connection from="-101374540#0" to="-115849594#1" fromLane="0" toLane="0"/>
    <connection from="-101374540#0" to="101374540#0" fromLane="0" toLane="0"/>

    <connection from="-101374540#1" to="-136061929#0" fromLane="0" toLane="0"/>
    <connection from="-101374540#1" to="-101374540#0" fromLane="0" toLane="0"/>
    <connection from="-101374540#1" to="136061929#1" fromLane="0" toLane="0"/>
    <connection from="-101374540#1" to="101374540#1" fromLane="0" toLane="0"/>

    <connection from="-101390606#0" to="146203667" fromLane="0" toLane="0"/>
    <connection from="-101390606#0" to="146203671#0" fromLane="0" toLane="0"/>
    <connection from="-101390606#0" to="-48447025#4" fromLane="0" toLane="0"/>
    <connection from="-101390606#0" to="101390606#0" fromLane="0" toLane="0"/>

    <connection from="-101390606#1" to="-128888463#0" fromLane="0" toLane="0"/>
    <connection from="-101390606#1" to="-101390606#0" fromLane="0" toLane="0"/>
    <connection from="-101390606#1" to="128888463#1" fromLane="0" toLane="0"/>
    <connection from="-101390606#1" to="101390606#1" fromLane="0" toLane="0"/>

    <connection from="-101390606#2" to="-101390606#1" fromLane="0" toLane="0"/>
    <connection from="-101390606#2" to="101390606#2" fromLane="0" toLane="0"/>

    <connection from="-101390606#3" to="146203672#0" fromLane="0" toLane="0"/>
    <connection from="-101390606#3" to="-101390606#2" fromLane="0" toLane="0"/>
    <connection from="-101390606#3" to="-101513321" fromLane="0" toLane="0"/>
    <connection from="-101390606#3" to="101390606#3" fromLane="0" toLane="0"/>

    <connection from="-101513321" to="48447025#1" fromLane="0" toLane="0"/>
    <connection from="-101513321" to="-48447025#0" fromLane="0" toLane="0"/>
    <connection from="-101513321" to="101513321" fromLane="0" toLane="0"/>

    <connection from="-101988386#0" to="101988403#1" fromLane="0" toLane="0"/>
    <connection from="-101988386#0" to="-101988403#0" fromLane="0" toLane="0"/>
    <connection from="-101988386#0" to="101988386#0" fromLane="0" toLane="0"/>

    <connection from="-101988386#1" to="-101988388" fromLane="0" toLane="0"/>
    <connection from="-101988386#1" to="-101988386#0" fromLane="0" toLane="0"/>
    <connection from="-101988386#1" to="101988386#1" fromLane="0" toLane="0"/>

    <connection from="-101988386#2" to="-101988390" fromLane="0" toLane="0"/>
    <connection from="-101988386#2" to="-101988386#1" fromLane="0" toLane="0"/>
    <connection from="-101988386#2" to="101988386#2" fromLane="0" toLane="0"/>

    <connection from="-101988388" to="101988403#2" fromLane="0" toLane="0"/>
    <connection from="-101988388" to="-101988403#1" fromLane="0" toLane="0"/>
    <connection from="-101988388" to="101988388" fromLane="0" toLane="0"/>

    <connection from="-101988390" to="101988403#3" fromLane="0" toLane="0"/>
    <connection from="-101988390" to="-101988403#2" fromLane="0" toLane="0"/>
    <connection from="-101988390" to="101988390" fromLane="0" toLane="0"/>

    <connection from="-101988403#0" to="-179776068#0" fromLane="0" toLane="0"/>
    <connection from="-101988403#0" to="179776068#1" fromLane="0" toLane="0"/>
    <connection from="-101988403#0" to="101988403#0" fromLane="0" toLane="0"/>

    <connection from="-101988403#1" to="-101988403#0" fromLane="0" toLane="0"/>
    <connection from="-101988403#1" to="101988386#0" fromLane="0" toLane="0"/>
    <connection from="-101988403#1" to="101988403#1" fromLane="0" toLane="0"/>

    <connection from="-101988403#10" to="-179776094" fromLane="0" toLane="0"/>
    <connection from="-101988403#10" to="-101988403#9" fromLane="0" toLane="0"/>
    <connection from="-101988403#10" to="101988403#10" fromLane="0" toLane="0"/>

    <connection from="-101988403#11" to="179776094" fromLane="0" toLane="0"/>
    <connection from="-101988403#11" to="-101988403#10" fromLane="0" toLane="0"/>
    <connection from="-101988403#11" to="101988403#11" fromLane="0" toLane="0"/>

    <connection from="-101988403#12" to="179776095" fromLane="0" toLane="0"/>
    <connection from="-101988403#12" to="-101988403#11" fromLane="0" toLane="0"/>
    <connection from="-101988403#12" to="101988403#12" fromLane="0" toLane="0"/>

    <connection from="-101988403#13" to="179776100" fromLane="0" toLane="0"/>
    <connection from="-101988403#13" to="-101988403#12" fromLane="0" toLane="0"/>
    <connection from="-101988403#13" to="101988403#13" fromLane="0" toLane="0"/>

    <connection from="-101988403#14" to="179776097" fromLane="0" toLane="0"/>
    <connection from="-101988403#14" to="-101988403#13" fromLane="0" toLane="0"/>
    <connection from="-101988403#14" to="101988403#14" fromLane="0" toLane="0"/>

    <connection from="-101988403#15" to="179776096" fromLane="0" toLane="0"/>
    <connection from="-101988403#15" to="-101988403#14" fromLane="0" toLane="0"/>
    <connection from="-101988403#15" to="101988403#15" fromLane="0" toLane="0"/>

    <connection from="-101988403#2" to="-101988403#1" fromLane="0" toLane="0"/>
    <connection from="-101988403#2" to="101988388" fromLane="0" toLane="0"/>
    <connection from="-101988403#2" to="101988403#2" fromLane="0" toLane="0"/>

    <connection from="-101988403#3" to="-101988403#2" fromLane="0" toLane="0"/>
    <connection from="-101988403#3" to="101988390" fromLane="0" toLane="0"/>
    <connection from="-101988403#3" to="101988403#3" fromLane="0" toLane="0"/>

    <connection from="-101988403#5" to="-101988403#15" fromLane="0" toLane="0"/>
    <connection from="-101988403#5" to="-101988403#3" fromLane="0" toLane="0"/>
    <connection from="-101988403#5" to="-101988386#2" fromLane="0" toLane="0"/>
    <connection from="-101988403#5" to="101988403#5" fromLane="0" toLane="0"/>

    <connection from="-101988403#6" to="-179776096" fromLane="0" toLane="0"/>
    <connection from="-101988403#6" to="-101988403#5" fromLane="0" toLane="0"/>
    <connection from="-101988403#6" to="101988403#6" fromLane="0" toLane="0"/>

    <connection from="-101988403#7" to="-179776097" fromLane="0" toLane="0"/>
    <connection from="-101988403#7" to="-101988403#6" fromLane="0" toLane="0"/>
    <connection from="-101988403#7" to="101988403#7" fromLane="0" toLane="0"/>

    <connection from="-101988403#8" to="-179776100" fromLane="0" toLane="0"/>
    <connection from="-101988403#8" to="-101988403#7" fromLane="0" toLane="0"/>
    <connection from="-101988403#8" to="101988403#8" fromLane="0" toLane="0"/>

    <connection from="-101988403#9" to="-179776095" fromLane="0" toLane="0"/>
    <connection from="-101988403#9" to="-101988403#8" fromLane="0" toLane="0"/>
    <connection from="-101988403#9" to="101988403#9" fromLane="0" toLane="0"/>

    <connection from="-102868609" to="43406176#6" fromLane="0" toLane="0"/>
    <connection from="-102868609" to="-43406176#5" fromLane="0" toLane="0"/>
    <connection from="-102868609" to="102868609" fromLane="0" toLane="0"/>

    <connection from="-102868617#0" to="-526624514" fromLane="0" toLane="0"/>
    <connection from="-102868617#0" to="-527411713#1" fromLane="0" toLane="0"/>
    <connection from="-102868617#0" to="527411713#3" fromLane="0" toLane="0"/>
    <connection from="-102868617#0" to="102868617#0" fromLane="0" toLane="0"/>

    <connection from="-102868617#2" to="-845935815" fromLane="0" toLane="0"/>
    <connection from="-102868617#2" to="-102868617#0" fromLane="0" toLane="0"/>
    <connection from="-102868617#2" to="845935816" fromLane="0" toLane="0"/>
    <connection from="-102868617#2" to="102868617#2" fromLane="0" toLane="0"/>

    <connection from="-104494823#0" to="-512591040#2" fromLane="0" toLane="0"/>
    <connection from="-104494823#0" to="512591040#3" fromLane="0" toLane="0"/>
    <connection from="-104494823#0" to="104494823#0" fromLane="0" toLane="0"/>

    <connection from="-104494823#1" to="-104494823#0" fromLane="0" toLane="0"/>
    <connection from="-104494823#1" to="104494823#1" fromLane="0" toLane="0"/>

    <connection from="-104494823#2" to="-104494839#0" fromLane="0" toLane="0"/>
    <connection from="-104494823#2" to="-104494823#1" fromLane="0" toLane="0"/>
    <connection from="-104494823#2" to="104494839#1" fromLane="0" toLane="0"/>
    <connection from="-104494823#2" to="104494823#2" fromLane="0" toLane="0"/>

    <connection from="-104494827" to="127435986#2" fromLane="0" toLane="0"/>
    <connection from="-104494827" to="-104494840#1" fromLane="0" toLane="0"/>
    <connection from="-104494827" to="-104494823#2" fromLane="0" toLane="0"/>
    <connection from="-104494827" to="182210573" fromLane="0" toLane="0"/>
    <connection from="-104494827" to="104494823#6" fromLane="0" toLane="0"/>

    <connection from="-104494834" to="25945923#0" fromLane="0" toLane="0"/>
    <connection from="-104494834" to="-595999978" fromLane="0" toLane="0"/>
    <connection from="-104494834" to="104494834" fromLane="0" toLane="0"/>

    <connection from="-104494837" to="512362204" fromLane="0" toLane="0"/>
    <connection from="-104494837" to="356469955" fromLane="0" toLane="0"/>
    <connection from="-104494837" to="104494837" fromLane="0" toLane="0"/>

    <connection from="-104494839#0" to="26175084#1" fromLane="0" toLane="0"/>
    <connection from="-104494839#0" to="104494839#0" fromLane="0" toLane="0"/>

    <connection from="-104494840#0" to="110703841#4" fromLane="0" toLane="0"/>
    <connection from="-104494840#0" to="-110703841#2" fromLane="0" toLane="0"/>
    <connection from="-104494840#0" to="104494840#0" fromLane="0" toLane="0"/>

    <connection from="-104494840#1" to="-104494840#0" fromLane="0" toLane="0"/>
    <connection from="-104494840#1" to="104494836#1" fromLane="0" toLane="0"/>
    <connection from="-104494840#1" to="104494840#1" fromLane="0" toLane="0"/>

    <connection from="-104494844#0" to="-110703841#4" fromLane="0" toLane="0"/>
    <connection from="-104494844#0" to="110703841#5" fromLane="0" toLane="0"/>

    <connection from="-104494844#1" to="-104494844#0" fromLane="0" toLane="0"/>
    <connection from="-104494844#1" to="104494844#1" fromLane="0" toLane="0"/>

    <connection from="-104494845" to="104494823#2" fromLane="0" toLane="0"/>
    <connection from="-104494845" to="-104494839#0" fromLane="0" toLane="0"/>
    <connection from="-104494845" to="-104494823#1" fromLane="0" toLane="0"/>
    <connection from="-104494845" to="104494839#1" fromLane="0" toLane="0"/>

    <connection from="-104665538" to="35151586#0" fromLane="0" toLane="0"/>
    <connection from="-104665538" to="104665538" fromLane="0" toLane="0"/>

    <connection from="-104665539" to="-104665538" fromLane="0" toLane="0"/>
    <connection from="-104665539" to="65554345#0" fromLane="0" toLane="0"/>
    <connection from="-104665539" to="104665539" fromLane="0" toLane="0"/>

    <connection from="-104668977#0" to="25945945#1" fromLane="0" toLane="0"/>
    <connection from="-104668977#0" to="104668977#0" fromLane="0" toLane="0"/>

    <connection from="-104668977#1" to="-104668977#0" fromLane="0" toLane="0"/>
    <connection from="-104668977#1" to="85256467#0" fromLane="0" toLane="0"/>
    <connection from="-104668977#1" to="104668977#1" fromLane="0" toLane="0"/>

    <connection from="-104709794#0" to="-28534932#4" fromLane="0" toLane="0"/>
    <connection from="-104709794#0" to="28534932#5" fromLane="0" toLane="0"/>
    <connection from="-104709794#0" to="104709794#0" fromLane="0" toLane="0"/>

    <connection from="-104709794#1" to="-104709794#0" fromLane="0" toLane="0"/>
    <connection from="-104709794#1" to="889122979" fromLane="0" toLane="0"/>
    <connection from="-104709794#1" to="104709794#1" fromLane="0" toLane="0"/>

    <connection from="-104709794#2" to="-104709794#1" fromLane="0" toLane="0"/>
    <connection from="-104709794#2" to="104709794#2" fromLane="0" toLane="0"/>

    <connection from="-104709794#3" to="-104709794#2" fromLane="0" toLane="0"/>
    <connection from="-104709794#3" to="104709794#3" fromLane="0" toLane="0"/>

    <connection from="-104709800#1" to="-443014109" fromLane="0" toLane="0"/>
    <connection from="-104709800#1" to="-244486735#3" fromLane="0" toLane="0"/>
    <connection from="-104709800#1" to="443007340" fromLane="0" toLane="0"/>
    <connection from="-104709800#1" to="104709800#0" fromLane="0" toLane="0"/>

    <connection from="-104709800#2" to="-913485584#1" fromLane="0" toLane="0"/>
    <connection from="-104709800#2" to="-104709800#1" fromLane="0" toLane="0"/>
    <connection from="-104709800#2" to="104709800#2" fromLane="0" toLane="0"/>

    <connection from="-104709800#3" to="-104709800#2" fromLane="0" toLane="0"/>
    <connection from="-104709800#3" to="104709800#3" fromLane="0" toLane="0"/>

    <connection from="-104709800#4" to="-104709800#3" fromLane="0" toLane="0"/>
    <connection from="-104709800#4" to="50463828#1" fromLane="0" toLane="0"/>
    <connection from="-104709800#4" to="240431962#1" fromLane="0" toLane="0"/>
    <connection from="-104709800#4" to="104709800#4" fromLane="0" toLane="0"/>

    <connection from="-104709807#1" to="-28534932#6" fromLane="0" toLane="0"/>
    <connection from="-104709807#1" to="-244486738#1" fromLane="0" toLane="0"/>
    <connection from="-104709807#1" to="65411786#1" fromLane="0" toLane="0"/>
    <connection from="-104709807#1" to="128898028#0" fromLane="0" toLane="0"/>
    <connection from="-104709807#1" to="104709807#0" fromLane="0" toLane="0"/>

    <connection from="-105014790#0" to="-124416766" fromLane="0" toLane="0"/>
    <connection from="-105014790#0" to="645561019#0" fromLane="0" toLane="0"/>
    <connection from="-105014790#0" to="105014790#0" fromLane="0" toLane="0"/>

    <connection from="-105014790#1" to="-105014790#0" fromLane="0" toLane="0"/>

    <connection from="-105014790#2" to="-596012374" fromLane="0" toLane="0"/>
    <connection from="-105014790#2" to="-105014790#1" fromLane="0" toLane="0"/>
    <connection from="-105014790#2" to="105014790#2" fromLane="0" toLane="0"/>

    <connection from="-105014796" to="181713522" fromLane="0" toLane="0"/>
    <connection from="-105014796" to="-179646614" fromLane="0" toLane="0"/>
    <connection from="-105014796" to="-130870039#2" fromLane="0" toLane="0"/>
    <connection from="-105014796" to="105014796" fromLane="0" toLane="0"/>

    <connection from="-105020957" to="105020957" fromLane="0" toLane="0"/>

    <connection from="-105197667#0" to="212112831#0" fromLane="0" toLane="0"/>
    <connection from="-105197667#0" to="-212112851" fromLane="0" toLane="0"/>
    <connection from="-105197667#0" to="105197667#0" fromLane="0" toLane="0"/>

    <connection from="-105197667#1" to="781987042" fromLane="0" toLane="0"/>
    <connection from="-105197667#1" to="-105197667#0" fromLane="0" toLane="0"/>
    <connection from="-105197667#1" to="105197667#1" fromLane="0" toLane="0"/>

    <connection from="-105197668" to="-105197694#0" fromLane="0" toLane="0"/>
    <connection from="-105197668" to="105197694#1" fromLane="0" toLane="0"/>
    <connection from="-105197668" to="105197668" fromLane="0" toLane="0"/>

    <connection from="-105197681" to="105197685#1" fromLane="0" toLane="0"/>
    <connection from="-105197681" to="-105197685#0" fromLane="0" toLane="0"/>
    <connection from="-105197681" to="105197681" fromLane="0" toLane="0"/>

    <connection from="-105197685#0" to="-27273765#4" fromLane="0" toLane="0"/>
    <connection from="-105197685#0" to="27273765#5" fromLane="0" toLane="0"/>
    <connection from="-105197685#0" to="105197685#0" fromLane="0" toLane="0"/>

    <connection from="-105197685#1" to="-105197685#0" fromLane="0" toLane="0"/>
    <connection from="-105197685#1" to="105197681" fromLane="0" toLane="0"/>
    <connection from="-105197685#1" to="105197685#1" fromLane="0" toLane="0"/>

    <connection from="-105197694#0" to="212112831#3" fromLane="0" toLane="0"/>
    <connection from="-105197694#0" to="-212112831#2" fromLane="0" toLane="0"/>
    <connection from="-105197694#0" to="105197694#0" fromLane="0" toLane="0"/>

    <connection from="-105197694#1" to="105197668" fromLane="0" toLane="0"/>
    <connection from="-105197694#1" to="-105197694#0" fromLane="0" toLane="0"/>
    <connection from="-105197694#1" to="105197694#1" fromLane="0" toLane="0"/>

    <connection from="-105197697#0" to="27273802#1" fromLane="0" toLane="0"/>
    <connection from="-105197697#0" to="-27273802#0" fromLane="0" toLane="0"/>
    <connection from="-105197697#0" to="105197697#0" fromLane="0" toLane="0"/>

    <connection from="-105197697#1" to="178153991#0" fromLane="0" toLane="0"/>
    <connection from="-105197697#1" to="-105197697#0" fromLane="0" toLane="0"/>