<?xml version="1.0" encoding="UTF-8"?>

<!-- generated on 2021-12-20 16:18:47 by Eclipse SUMO netconvert Version 1.10.0
<configuration xmlns:xsi="http://www.w3.org/2001/XMLSchema-instance" xsi:noNamespaceSchemaLocation="http://sumo.dlr.de/xsd/netconvertConfiguration.xsd">

    <input>
        <sumo-net-file value="../osm/osm.net.xml"/>
    </input>

    <output>
        <plain-output-prefix value="../osm/osm"/>
        <output.street-names value="true"/>
    </output>

    <processing>
        <geometry.min-radius.fix.railways value="false"/>
        <geometry.max-grade.fix value="false"/>
        <offset.disable-normalization value="true"/>
        <roundabouts.guess value="false"/>
        <lefthand value="false"/>
    </processing>

    <junctions>
        <no-turnarounds value="true"/>
        <junctions.corner-detail value="5"/>
        <junctions.limit-turn-speed value="5.5"/>
        <rectangular-lane-cut value="false"/>
    </junctions>

    <pedestrian>
        <walkingareas value="false"/>
    </pedestrian>

    <report>
        <aggregate-warnings value="5"/>
    </report>

</configuration>
-->

<nodes version="1.9" xmlns:xsi="http://www.w3.org/2001/XMLSchema-instance" xsi:noNamespaceSchemaLocation="http://sumo.dlr.de/xsd/nodes_file.xsd">
    <location netOffset="-543074.33,-5627577.65" convBoundary="0.00,0.00,15094.55,11266.22" origBoundary="9.611217,50.723113,9.826982,50.917305" projParameter="+proj=utm +zone=32 +ellps=WGS84 +datum=WGS84 +units=m +no_defs"/>

    <node id="1000044393" x="0.00" y="0.00" type="priority"/>
    <node id="1003092331" x="6339.01" y="4673.14" type="right_before_left"/>
    <node id="1003092347" x="6318.06" y="4628.05" type="right_before_left"/>
    <node id="1011303786" x="3545.35" y="10059.05" type="priority"/>
    <node id="1012044155" x="3568.90" y="9917.58" type="priority"/>
    <node id="1012044186" x="3550.43" y="10057.24" type="priority"/>
    <node id="1012051424" x="3883.56" y="9737.18" type="priority"/>
    <node id="1012051438" x="3754.82" y="9880.71" type="priority"/>
    <node id="1018520507" x="4758.60" y="4921.83" type="priority"/>
    <node id="1018520515" x="4887.94" y="5282.33" type="rail_crossing"/>
    <node id="1021201381" x="9407.82" y="4947.00" type="priority"/>
    <node id="1021201384" x="8855.66" y="4637.16" type="priority"/>
    <node id="1033589606" x="5906.01" y="5198.63" type="priority"/>
    <node id="104494833-AddedOnRampNode" x="6766.93" y="6915.23" type="priority"/>
    <node id="1051438476" x="3896.05" y="9850.42" type="priority"/>
    <node id="1051438480" x="3803.77" y="9795.23" type="priority"/>
    <node id="1053673448" x="4091.76" y="9954.28" type="right_before_left"/>
    <node id="1053673451" x="3802.83" y="9729.54" type="priority"/>
    <node id="1053673454" x="4161.37" y="10410.53" type="priority"/>
    <node id="1053673474" x="3757.51" y="9732.08" type="priority"/>
    <node id="1064529019" x="4090.16" y="9722.10" type="priority"/>
    <node id="1064529022" x="4035.52" y="9589.34" type="right_before_left"/>
    <node id="1065229392" x="3879.02" y="9541.29" type="right_before_left"/>
    <node id="1065229393" x="3987.52" y="9729.58" type="priority"/>
    <node id="1065229422" x="3586.32" y="9877.88" type="priority"/>
    <node id="1065229425" x="3831.53" y="10053.93" type="right_before_left"/>
    <node id="1065229426" x="3695.64" y="10043.06" type="right_before_left"/>
    <node id="1073483026" x="8538.15" y="7905.37" type="priority"/>
    <node id="1073483240" x="8504.80" y="7834.19" type="priority"/>
    <node id="1073483462" x="8470.12" y="7905.15" type="priority"/>
    <node id="1077030125" x="5927.43" y="4613.38" type="right_before_left"/>
    <node id="1077030140" x="5962.50" y="4715.94" type="right_before_left"/>
    <node id="1077030163" x="5940.74" y="4494.06" type="priority"/>
    <node id="1078564751" x="7816.90" y="7021.02" type="priority"/>
    <node id="1078564850" x="7809.58" y="7042.33" type="priority"/>
    <node id="1078564858" x="8468.81" y="7601.80" type="priority"/>
    <node id="1080179190" x="6474.23" y="4851.51" type="dead_end"/>
    <node id="1092500252" x="4049.74" y="9611.56" type="priority"/>
    <node id="1097719199" x="3729.19" y="10182.13" type="right_before_left"/>
    <node id="1100448713" x="3706.28" y="9688.80" type="priority"/>
    <node id="1100448716" x="3716.55" y="9692.35" type="priority"/>
    <node id="1104674717" x="6289.46" y="5721.95" type="priority"/>
    <node id="1104674761" x="6282.75" y="5759.59" type="dead_end"/>
    <node id="1104674775" x="6250.38" y="5897.09" type="dead_end"/>
    <node id="1104674847" x="6367.94" y="5787.98" type="dead_end"/>
    <node id="1104674907" x="6313.61" y="5828.01" type="right_before_left"/>
    <node id="1104674996" x="6371.29" y="5472.68" type="right_before_left"/>
    <node id="1104675001" x="6380.22" y="5482.75" type="priority"/>
    <node id="1128211744" x="13187.14" y="5372.14" type="priority"/>
    <node id="1128211872" x="13458.04" y="5803.68" type="right_before_left"/>
    <node id="1128211878" x="13277.57" y="5542.22" type="right_before_left"/>
    <node id="1128211904" x="13240.76" y="5356.37" type="right_before_left"/>
    <node id="1128211906" x="13134.17" y="5786.50" type="priority"/>
    <node id="1128271570" x="10838.73" y="4356.99" type="priority"/>
    <node id="1128271595" x="11013.54" y="4494.87" type="priority"/>
    <node id="1128271608" x="10890.12" y="4397.83" type="right_before_left"/>
    <node id="1148270718" x="6925.20" y="5324.48" type="right_before_left"/>
    <node id="1148270727" x="7429.06" y="4852.05" type="priority"/>
    <node id="1152948003" x="6495.39" y="6107.07" type="right_before_left"/>
    <node id="1152948008" x="5914.61" y="5559.73" type="priority"/>
    <node id="1152948011" x="6000.55" y="5685.58" type="priority"/>
    <node id="1152948014" x="5947.72" y="5308.50" type="priority"/>
    <node id="1152948018" x="6061.44" y="5625.49" type="right_before_left"/>
    <node id="1152948019" x="6453.54" y="4864.69" type="dead_end"/>
    <node id="1152948022" x="5976.08" y="5183.87" type="priority"/>
    <node id="1152948040" x="6434.04" y="6286.15" type="right_before_left"/>
    <node id="1152948047" x="6017.34" y="5683.06" type="priority"/>
    <node id="1152948053" x="6117.87" y="5689.91" type="priority"/>
    <node id="1152948058" x="6025.27" y="5594.65" type="priority"/>
    <node id="1152948061" x="6475.75" y="6120.00" type="right_before_left"/>
    <node id="1152948072" x="5971.97" y="5599.60" type="priority"/>
    <node id="1154380626" x="7121.95" y="7466.39" type="rail_crossing"/>
    <node id="1154402862" x="8519.94" y="8614.71" type="right_before_left"/>
    <node id="1154402864" x="7328.21" y="7840.95" type="priority"/>
    <node id="1154402866" x="8636.07" y="8505.13" type="priority"/>
    <node id="1154402872" x="8651.24" y="8485.36" type="priority"/>
    <node id="1163273811" x="4548.14" y="9374.27" type="priority"/>
    <node id="1163273819" x="4351.49" y="9400.26" type="right_before_left"/>
    <node id="1163273872" x="4412.21" y="9496.70" type="priority"/>
    <node id="1163636333" x="9176.33" y="6979.94" type="priority"/>
    <node id="1163636549" x="9183.75" y="6958.92" type="right_before_left"/>
    <node id="1163637743" x="8960.33" y="7228.14" type="right_before_left"/>
    <node id="1163638868" x="8568.75" y="7215.08" type="priority"/>
    <node id="1163639748" x="8510.23" y="7113.13" type="priority"/>
    <node id="1163640206" x="8482.12" y="7336.56" type="right_before_left"/>
    <node id="1163640886" x="8482.05" y="7403.88" type="priority"/>
    <node id="1170526404" x="7826.04" y="9638.62" type="priority"/>
    <node id="1170526407" x="7754.38" y="9547.80" type="priority">
        <param key="buffer_stop" value="true"/>
    </node>
    <node id="1170526412" x="7790.22" y="9512.04" type="priority"/>
    <node id="1170610772" x="10049.41" y="8621.12" type="priority"/>
    <node id="1170610781" x="10101.05" y="8411.95" type="priority"/>
    <node id="1170610785" x="10180.67" y="8001.77" type="right_before_left"/>
    <node id="1170610860" x="10318.05" y="8085.25" type="priority"/>
    <node id="1170610875" x="11118.65" y="8037.65" type="right_before_left"/>
    <node id="1170610895" x="10036.47" y="7886.80" type="priority"/>
    <node id="1170610929" x="10344.64" y="8332.90" type="priority"/>
    <node id="1170610941" x="10982.11" y="7639.27" type="priority"/>
    <node id="1170610969" x="10134.21" y="8430.40" type="priority"/>
    <node id="1170610993" x="11327.47" y="7969.41" type="priority"/>
    <node id="1170610999" x="10316.13" y="8335.45" type="right_before_left"/>
    <node id="1170611015" x="10713.23" y="7848.93" type="priority"/>
    <node id="1170611044" x="10578.39" y="7815.96" type="priority"/>
    <node id="1170611052" x="10961.17" y="8952.11" type="priority"/>
    <node id="1170611059" x="10151.03" y="8443.96" type="priority"/>
    <node id="1170611071" x="11124.38" y="7792.30" type="priority"/>
    <node id="1170611076" x="10573.26" y="7837.64" type="priority"/>
    <node id="1170611100" x="10058.29" y="7991.36" type="right_before_left"/>
    <node id="1170611147" x="11154.31" y="8891.79" type="priority"/>
    <node id="1170611192" x="10323.51" y="8781.08" type="priority"/>
    <node id="1170611206" x="11046.92" y="7859.94" type="priority"/>
    <node id="1170611212" x="10528.23" y="7832.13" type="priority"/>
    <node id="1170611221" x="10300.09" y="8366.80" type="priority"/>
    <node id="1170611238" x="11050.32" y="7608.44" type="priority"/>
    <node id="1170611244" x="11595.86" y="9404.61" type="priority"/>
    <node id="1170848050" x="3408.58" y="4309.25" type="right_before_left"/>
    <node id="1170848086" x="3390.64" y="4385.72" type="priority"/>
    <node id="1170848104" x="3572.37" y="4217.49" type="priority"/>
    <node id="1170885763" x="3381.60" y="4311.79" type="right_before_left"/>
    <node id="1170885858" x="3617.14" y="4389.79" type="priority"/>
    <node id="1172136115" x="3477.89" y="4403.29" type="right_before_left"/>
    <node id="1172831524" x="6617.56" y="9466.04" type="right_before_left"/>
    <node id="1172831806" x="6102.74" y="9534.97" type="right_before_left"/>
    <node id="1177373915" x="6238.29" y="6045.74" type="priority"/>
    <node id="1177409080" x="6891.64" y="6874.09" type="right_before_left"/>
    <node id="1177409121" x="6871.48" y="6810.79" type="right_before_left"/>
    <node id="1177409149" x="6923.28" y="6834.72" type="right_before_left"/>
    <node id="1177409161" x="6939.89" y="6838.71" type="priority"/>
    <node id="1177409166" x="6910.87" y="6831.73" type="right_before_left"/>
    <node id="1177409199" x="6878.60" y="6870.85" type="right_before_left"/>
    <node id="1177409205" x="6897.24" y="6828.45" type="right_before_left"/>
    <node id="1187971675" x="4873.46" y="6132.05" type="priority"/>
    <node id="1187971678" x="4591.00" y="5911.45" type="priority"/>
    <node id="1189395941" x="7509.71" y="5994.59" type="priority"/>
    <node id="1196935809" x="9330.16" y="6930.98" type="priority"/>
    <node id="1196935810" x="9201.88" y="7007.39" type="priority"/>
    <node id="1196936979" x="8994.78" y="7318.98" type="priority"/>
    <node id="1201668221" x="7638.84" y="8693.26" type="priority"/>
    <node id="1201668245" x="7526.90" y="8467.53" type="priority"/>
    <node id="1201668269" x="7489.97" y="8307.31" type="rail_signal"/>
    <node id="1201668275" x="7298.39" y="7878.66" type="priority"/>
    <node id="1201668300" x="7430.43" y="8328.30" type="priority"/>
    <node id="1201668317" x="7168.90" y="7404.13" type="priority"/>
    <node id="1201668339" x="7234.37" y="7770.34" type="priority"/>
    <node id="1201668343" x="7477.77" y="8373.78" type="priority"/>
    <node id="1201668353" x="7345.06" y="7957.56" type="rail_signal"/>
    <node id="1201668404" x="7406.77" y="8296.07" type="priority"/>
    <node id="1201668434" x="7366.90" y="8209.02" type="priority"/>
    <node id="1201668451" x="7388.27" y="8146.92" type="priority"/>
    <node id="1201668458" x="7542.98" y="8495.12" type="priority"/>
    <node id="1201668475" x="7521.52" y="8448.47" type="priority"/>
    <node id="1201668479" x="7343.92" y="8157.43" type="dead_end"/>
    <node id="1201668487" x="7339.42" y="8155.89" type="dead_end"/>
    <node id="1201668489" x="7402.47" y="8198.04" type="priority"/>
    <node id="1201668504" x="7396.30" y="8175.03" type="priority"/>
    <node id="1201668532" x="7387.82" y="8256.65" type="priority"/>
    <node id="1201668540" x="7335.49" y="8167.36" type="dead_end"/>
    <node id="1201668546" x="7574.52" y="3825.74" type="dead_end"/>
    <node id="1201668561" x="7259.27" y="7837.12" type="priority"/>
    <node id="1201668604" x="7565.34" y="8538.35" type="priority"/>
    <node id="1201668610" x="7362.87" y="8211.95" type="priority"/>
    <node id="1201668618" x="7254.16" y="7795.06" type="priority"/>
    <node id="1201668619" x="7613.25" y="8651.88" type="priority"/>
    <node id="1201668621" x="7372.37" y="8096.29" type="priority"/>
    <node id="1201668644" x="7570.49" y="3824.64" type="dead_end"/>
    <node id="1201668650" x="7502.56" y="8416.21" type="priority"/>
    <node id="1201668666" x="7263.01" y="7813.51" type="priority"/>
    <node id="1201668672" x="7647.30" y="8701.85" type="priority"/>
    <node id="1201752690" x="7695.18" y="8823.78" type="priority"/>
    <node id="1201752695" x="7738.64" y="8911.19" type="priority"/>
    <node id="1201752705" x="7714.04" y="8880.03" type="priority"/>
    <node id="1201752713" x="7707.03" y="8850.26" type="priority"/>
    <node id="1201752718" x="7848.22" y="9277.30" type="dead_end"/>
    <node id="1201752720" x="7666.66" y="8745.58" type="priority"/>
    <node id="1201752726" x="7685.60" y="8801.14" type="priority"/>
    <node id="1205630554" x="6919.40" y="6975.11" type="priority"/>
    <node id="1205630582" x="6683.08" y="7159.10" type="priority"/>
    <node id="1205630622" x="6948.03" y="6925.02" type="priority"/>
    <node id="1205630623" x="6636.81" y="7175.19" type="right_before_left"/>
    <node id="1205630686" x="6858.59" y="7006.51" type="priority"/>
    <node id="1205630693" x="7042.77" y="6951.60" type="priority"/>
    <node id="1205630708" x="6633.33" y="7156.05" type="priority"/>
    <node id="1205630734" x="6844.39" y="7022.95" type="priority"/>
    <node id="1207289212" x="6706.80" y="7722.17" type="dead_end"/>
    <node id="1207330014" x="7048.67" y="7732.00" type="dead_end"/>
    <node id="1207330018" x="6954.86" y="7724.08" type="priority"/>
    <node id="1207330031" x="7097.80" y="7781.30" type="dead_end"/>
    <node id="1207330039" x="6802.86" y="7883.70" type="dead_end"/>
    <node id="1207330040" x="6793.78" y="7878.03" type="dead_end"/>
    <node id="1207351645" x="7291.24" y="7992.10" type="priority"/>
    <node id="1207679248" x="6428.48" y="7474.62" type="priority"/>
    <node id="1207679249" x="6300.03" y="7609.31" type="right_before_left"/>
    <node id="1207679273" x="6374.00" y="7562.90" type="priority"/>
    <node id="1207767946" x="6337.96" y="7463.65" type="priority"/>
    <node id="1207767948" x="6544.38" y="7884.86" type="priority"/>
    <node id="1207767950" x="6340.85" y="7942.23" type="priority"/>
    <node id="1207767965" x="6495.97" y="7790.48" type="priority"/>
    <node id="1207767966" x="6187.71" y="7579.20" type="traffic_light" tl="1207767966"/>
    <node id="1207767968" x="6533.99" y="7892.74" type="priority"/>
    <node id="1207767969" x="6543.12" y="7487.28" type="priority"/>
    <node id="1207767989" x="6487.54" y="7802.15" type="priority"/>
    <node id="1207767999" x="6505.54" y="7778.20" type="priority"/>
    <node id="1207768001" x="6477.86" y="7813.99" type="priority"/>
    <node id="1207768019" x="6576.41" y="7860.56" type="priority"/>
    <node id="1207768026" x="6556.27" y="7876.00" type="priority"/>
    <node id="1207768045" x="6567.10" y="7867.73" type="priority"/>
    <node id="1207768054" x="6334.93" y="7450.61" type="priority"/>
    <node id="1208477963" x="6366.85" y="8020.65" type="priority"/>
    <node id="1208502048" x="7091.46" y="7653.07" type="priority"/>
    <node id="1209228329" x="6732.70" y="7839.46" type="dead_end"/>
    <node id="1209228331" x="6716.19" y="7861.35" type="dead_end"/>
    <node id="1209228332" x="6721.61" y="7859.67" type="dead_end"/>
    <node id="1209228341" x="6687.37" y="7850.69" type="dead_end"/>
    <node id="1209228347" x="6582.72" y="7726.54" type="dead_end"/>
    <node id="1209228348" x="6712.61" y="7861.76" type="dead_end"/>
    <node id="1209228351" x="6722.73" y="7830.91" type="dead_end"/>
    <node id="1209228356" x="6703.93" y="7819.00" type="dead_end"/>
    <node id="1209228370" x="6739.06" y="7865.89" type="dead_end"/>
    <node id="1209266633" x="6656.70" y="7591.24" type="priority"/>
    <node id="1210178715" x="6714.56" y="7887.25" type="priority"/>
    <node id="1210666297" x="5435.79" y="6322.01" type="right_before_left"/>
    <node id="1210666306" x="5521.55" y="6252.99" type="priority"/>
    <node id="1210666338" x="5564.19" y="6349.62" type="priority"/>
    <node id="1210666383" x="5484.57" y="6323.89" type="priority"/>
    <node id="1210666396" x="6839.56" y="6381.56" type="priority"/>
    <node id="1210666449" x="5459.38" y="6321.03" type="right_before_left"/>
    <node id="1210666450" x="5470.56" y="6330.97" type="priority"/>
    <node id="1210666507" x="5478.43" y="6236.33" type="priority"/>
    <node id="1210666525" x="5462.26" y="6316.01" type="priority"/>
    <node id="1210666527" x="6307.98" y="6476.76" type="priority"/>
    <node id="1210737280" x="7630.25" y="7115.12" type="priority">
        <param key="buffer_stop" value="true"/>
    </node>
    <node id="1210737284" x="7727.00" y="7203.12" type="priority"/>
    <node id="1210737331" x="7644.44" y="7153.21" type="dead_end"/>
    <node id="1210737337" x="7637.69" y="7097.69" type="right_before_left"/>
    <node id="1210749732" x="7663.39" y="7100.37" type="right_before_left"/>
    <node id="1212244135" x="5034.84" y="7872.81" type="priority"/>
    <node id="1212244146" x="4864.39" y="7897.39" type="priority"/>
    <node id="1212244178" x="5142.49" y="7758.25" type="priority"/>
    <node id="1212244179" x="5216.49" y="7965.49" type="priority"/>
    <node id="1212244181" x="5555.82" y="8001.00" type="priority">
        <param key="buffer_stop" value="true"/>
    </node>
    <node id="1212244184" x="4984.04" y="7820.56" type="priority"/>
    <node id="1212244220" x="5480.99" y="8028.11" type="priority"/>
    <node id="1212244227" x="5484.93" y="7947.32" type="priority"/>
    <node id="1212244228" x="5081.43" y="7874.85" type="priority"/>
    <node id="1212244284" x="4933.82" y="7903.49" type="priority"/>
    <node id="1212244302" x="5342.43" y="8085.79" type="right_before_left"/>
    <node id="1212244305" x="5416.62" y="8042.54" type="priority"/>
    <node id="1212244342" x="4934.48" y="7867.93" type="priority"/>
    <node id="1212244345" x="5487.81" y="8082.12" type="priority"/>
    <node id="1212244352" x="4947.72" y="7681.72" type="priority"/>
    <node id="1213383123" x="6340.03" y="5002.56" type="priority"/>
    <node id="1213383594" x="6286.97" y="4980.20" type="priority">
        <param key="buffer_stop" value="true"/>
    </node>
    <node id="1213559708" x="6242.61" y="4886.34" type="priority"/>
    <node id="1213559717" x="6300.98" y="4925.04" type="right_before_left"/>
    <node id="1219421974" x="6633.23" y="6828.24" type="right_before_left"/>
    <node id="1219421990" x="5959.11" y="6941.87" type="dead_end"/>
    <node id="1219422182" x="6003.53" y="7021.24" type="dead_end"/>
    <node id="1219422350" x="6225.41" y="7259.87" type="dead_end"/>
    <node id="1219422524" x="6245.34" y="7247.37" type="dead_end"/>
    <node id="1219422627" x="5937.36" y="6904.40" type="dead_end"/>
    <node id="1227626550" x="6319.60" y="7048.47" type="priority"/>
    <node id="1227626561" x="6207.45" y="7088.21" type="dead_end"/>
    <node id="1234027412" x="11683.11" y="6106.68" type="priority"/>
    <node id="1234027417" x="12230.41" y="7439.55" type="right_before_left"/>
    <node id="1234027424" x="12398.96" y="6609.54" type="right_before_left"/>
    <node id="1234027434" x="12030.47" y="6838.29" type="priority"/>
    <node id="1234090127" x="11326.52" y="5405.64" type="right_before_left"/>
    <node id="1234090129" x="10876.69" y="6085.41" type="right_before_left"/>
    <node id="1234090143" x="11401.22" y="6280.94" type="right_before_left"/>
    <node id="1234090152" x="10811.48" y="6299.24" type="right_before_left"/>
    <node id="1234090160" x="11712.82" y="5825.21" type="priority"/>
    <node id="1234090161" x="11434.29" y="6515.42" type="priority"/>
    <node id="1234090163" x="10977.94" y="6103.12" type="right_before_left"/>
    <node id="1234090170" x="11581.77" y="5970.29" type="priority"/>
    <node id="1234090179" x="11300.49" y="6179.06" type="right_before_left"/>
    <node id="1235084947" x="5770.81" y="6714.33" type="right_before_left"/>
    <node id="1235084948" x="6055.95" y="6616.01" type="priority"/>
    <node id="1235084950" x="5814.08" y="6676.58" type="priority"/>
    <node id="1238368020" x="6809.99" y="8401.79" type="right_before_left"/>
    <node id="1239643260" x="6669.15" y="7060.92" type="priority"/>
    <node id="1239643272" x="6644.94" y="7010.88" type="priority"/>
    <node id="1243200314" x="5586.04" y="6339.72" type="rail_crossing"/>
    <node id="1244343169" x="7815.63" y="8966.15" type="priority"/>
    <node id="1249020357" x="8856.34" y="5117.15" type="priority"/>
    <node id="1250325893" x="8370.33" y="5402.61" type="right_before_left"/>
    <node id="1250325905" x="8543.21" y="5051.34" type="right_before_left"/>
    <node id="1250325950" x="8269.99" y="5105.47" type="priority"/>
    <node id="1277265856" x="8362.45" y="11020.49" type="priority"/>
    <node id="1286580228" x="8102.06" y="7642.82" type="right_before_left"/>
    <node id="1306203746" x="7923.65" y="4603.86" type="priority"/>
    <node id="1306203810" x="7936.41" y="4610.58" type="priority"/>
    <node id="1307698529" x="8950.84" y="9258.50" type="right_before_left"/>
    <node id="1307698545" x="8921.56" y="9283.62" type="right_before_left"/>
    <node id="1307698580" x="9169.87" y="9248.63" type="right_before_left"/>
    <node id="1307698589" x="8906.83" y="9284.95" type="priority"/>
    <node id="1307962152" x="10033.92" y="8638.80" type="priority"/>
    <node id="1307962174" x="9983.81" y="8672.41" type="priority"/>
    <node id="1310819822" x="8466.91" y="6780.27" type="priority"/>
    <node id="1310819837" x="8394.37" y="6812.01" type="priority"/>
    <node id="1310819908" x="8368.72" y="6823.52" type="priority"/>
    <node id="1310819941" x="8483.05" y="6781.19" type="priority"/>
    <node id="1313275562" x="3106.04" y="10694.27" type="priority"/>
    <node id="1326761195" x="4898.87" y="5603.33" type="priority"/>
    <node id="1326761197" x="4768.64" y="5419.27" type="right_before_left"/>
    <node id="1326761204" x="4805.03" y="5263.58" type="right_before_left"/>
    <node id="1326761210" x="4762.18" y="5405.33" type="right_before_left"/>
    <node id="1326761226" x="4733.84" y="5455.49" type="right_before_left"/>
    <node id="1326761251" x="4753.70" y="5325.79" type="right_before_left"/>
    <node id="1326761252" x="4775.67" y="5300.30" type="right_before_left"/>
    <node id="1326761254" x="4800.13" y="5336.34" type="priority"/>
    <node id="1326761256" x="4731.85" y="5347.55" type="right_before_left"/>
    <node id="1326761260" x="4765.81" y="5452.69" type="right_before_left"/>
    <node id="1326761270" x="4760.53" y="5442.26" type="right_before_left"/>
    <node id="1326761279" x="4807.10" y="5245.29" type="right_before_left"/>
    <node id="1326761282" x="4624.17" y="5383.77" type="priority"/>
    <node id="1326761291" x="4759.32" y="5337.55" type="priority"/>
    <node id="1326761293" x="4796.11" y="5296.44" type="priority"/>
    <node id="1326761299" x="4750.63" y="5161.69" type="right_before_left"/>
    <node id="1326761308" x="4739.21" y="5466.19" type="right_before_left"/>
    <node id="1326765706" x="4086.29" y="5409.38" type="right_before_left"/>
    <node id="1326765723" x="4464.90" y="5283.12" type="right_before_left"/>
    <node id="1326765742" x="4592.22" y="5097.97" type="priority"/>
    <node id="1331127350" x="10819.69" y="6317.15" type="right_before_left"/>
    <node id="1347563086" x="6891.02" y="8175.63" type="priority"/>
    <node id="1364903489" x="7382.78" y="7987.59" type="priority"/>
    <node id="1364903490" x="7400.08" y="8015.45" type="priority"/>
    <node id="1364903491" x="7387.14" y="8023.29" type="right_before_left"/>
    <node id="1377620131" x="5631.17" y="8292.02" type="priority"/>
    <node id="1377620133" x="5385.35" y="8366.08" type="priority"/>
    <node id="1377620134" x="5654.22" y="8248.29" type="priority"/>
    <node id="1377620142" x="5254.80" y="8719.47" type="right_before_left"/>
    <node id="1377620145" x="5120.33" y="8547.29" type="priority"/>
    <node id="1377620158" x="4828.28" y="8271.82" type="right_before_left"/>
    <node id="1377620161" x="5069.74" y="8320.34" type="priority"/>
    <node id="1377620167" x="4539.02" y="8361.07" type="priority"/>
    <node id="1377620171" x="4673.75" y="8286.35" type="priority"/>
    <node id="1384946484" x="7268.06" y="7893.51" type="priority"/>
    <node id="1384946486" x="7287.70" y="7939.05" type="priority"/>
    <node id="1384946487" x="7273.74" y="7944.34" type="priority"/>
    <node id="1384946490" x="7280.96" y="7959.51" type="priority"/>
    <node id="1393881074" x="5753.68" y="8777.94" type="priority"/>
    <node id="1393881081" x="6207.73" y="8625.14" type="priority"/>
    <node id="1393881083" x="5955.85" y="8748.54" type="dead_end"/>
    <node id="1393881088" x="5769.37" y="8816.77" type="right_before_left"/>
    <node id="1398504813" x="6891.31" y="8213.32" type="priority"/>
    <node id="1404715474" x="7019.49" y="6929.81" type="right_before_left"/>
    <node id="1404715477" x="7017.95" y="6944.67" type="priority"/>
    <node id="1404715478" x="7002.95" y="6951.07" type="dead_end"/>
    <node id="1404715479" x="7012.70" y="6952.39" type="dead_end"/>
    <node id="1405223184" x="7375.27" y="7971.30" type="priority"/>
    <node id="1405223214" x="7378.93" y="8037.63" type="priority"/>
    <node id="1405223222" x="7406.49" y="8078.05" type="rail_crossing"/>
    <node id="1405223226" x="7500.38" y="8210.38" type="dead_end"/>
    <node id="1405223227" x="7720.83" y="8775.48" type="priority"/>
    <node id="1405249418" x="7464.96" y="7762.21" type="priority"/>
    <node id="1405249447" x="7426.32" y="7840.51" type="right_before_left"/>
    <node id="1405249458" x="7412.28" y="7847.09" type="priority"/>
    <node id="1405249466" x="7484.46" y="7870.96" type="priority"/>
    <node id="1405249474" x="7465.46" y="7879.82" type="right_before_left"/>
    <node id="1406226801" x="7820.08" y="8554.60" type="priority"/>
    <node id="1406226820" x="7860.12" y="9039.63" type="right_before_left"/>
    <node id="1406226821" x="7848.88" y="9044.90" type="priority"/>
    <node id="1406226849" x="7938.31" y="9523.36" type="priority"/>
    <node id="1406250412" x="8090.96" y="9633.41" type="priority">
        <param key="buffer_stop" value="true"/>
    </node>
    <node id="1406250442" x="7978.23" y="9690.37" type="priority"/>
    <node id="1406250445" x="7989.55" y="9726.72" type="priority"/>
    <node id="1406252169" x="9137.04" y="9565.04" type="priority"/>
    <node id="1406294157" x="7379.96" y="7981.46" type="priority"/>
    <node id="1406294160" x="7372.46" y="7984.90" type="dead_end"/>
    <node id="1406294178" x="7363.13" y="7988.96" type="dead_end"/>
    <node id="1406294205" x="7340.64" y="7998.66" type="dead_end"/>
    <node id="1406314227" x="7338.45" y="7993.66" type="dead_end"/>
    <node id="1406324186" x="7321.33" y="8067.07" type="right_before_left"/>
    <node id="1410505623" x="6373.57" y="8031.78" type="priority"/>
    <node id="1410505649" x="6050.98" y="8270.41" type="right_before_left"/>
    <node id="1410505664" x="5820.10" y="8388.61" type="priority"/>
    <node id="1410505679" x="6599.87" y="8419.74" type="right_before_left"/>
    <node id="1410505689" x="5560.14" y="8455.61" type="right_before_left"/>
    <node id="1410505693" x="5491.43" y="8495.00" type="priority"/>
    <node id="1410505700" x="5394.62" y="8519.49" type="priority"/>
    <node id="1410505708" x="5558.54" y="8518.66" type="right_before_left"/>
    <node id="1410505716" x="5521.94" y="8538.16" type="priority"/>
    <node id="1410505720" x="5459.35" y="8557.91" type="priority"/>
    <node id="1410505722" x="5436.89" y="8582.33" type="priority"/>
    <node id="1411150059" x="5372.15" y="9059.16" type="right_before_left"/>
    <node id="1411502692" x="6496.63" y="8365.28" type="priority"/>
    <node id="1411502739" x="6382.67" y="8407.77" type="dead_end"/>
    <node id="1411502751" x="6393.65" y="8420.32" type="dead_end"/>
    <node id="1411502770" x="6335.56" y="8461.44" type="dead_end"/>
    <node id="1411502814" x="6163.52" y="8542.00" type="priority"/>
    <node id="1411502820" x="6150.28" y="8552.38" type="priority"/>
    <node id="1411502853" x="6220.66" y="8589.85" type="priority"/>
    <node id="1411502854" x="6184.02" y="8592.27" type="priority"/>
    <node id="1411502871" x="6207.93" y="8599.43" type="right_before_left"/>