<?xml version="1.0" encoding="UTF-8"?>
<!-- generated on 2022-01-18 08:46:36.087556 by $Id: ptlines2flows.py v1_3_1+0313-ccb31df3eb jakob.erdmann@dlr.de 2019-09-02 13:26:32 +0200 $ v1_11_0+0960-9a7789007a4
  options: -n osm.net.xml -e 3600 -p 600 <doubleminus>random-begin <doubleminus>seed 42 <doubleminus>ptstops osm_stops.add.xml <doubleminus>ptlines osm_ptlines.xml -o osm_pt.rou.xml <doubleminus>ignore-errors <doubleminus>vtype-prefix pt_ <doubleminus>stopinfos-file stopinfos.xml <doubleminus>routes-file vehroutes.xml <doubleminus>trips-file trips.trips.xml <doubleminus>min-stops 0 <doubleminus>extend-to-fringe <doubleminus>verbose
-->
<routes xmlns:xsi="http://www.w3.org/2001/XMLSchema-instance" xsi:noNamespaceSchemaLocation="http://sumo.dlr.de/xsd/routes_file.xsd">
    <vType id="pt_bus" vClass="bus"/>
    <vType id="pt_tram" vClass="tram"/>
    <vType id="pt_train" vClass="rail"/>
    <vType id="pt_subway" vClass="rail_urban"/>
    <vType id="pt_light_rail" vClass="rail_urban"/>
    <vType id="pt_monorail" vClass="rail"/>
    <vType id="pt_trolleybus" vClass="bus"/>
    <vType id="pt_minibus" vClass="bus"/>
    <vType id="pt_share_taxi" vClass="taxi"/>
    <vType id="pt_aerialway" vClass="bus"/>
    <vType id="pt_ferry" vClass="ship"/>
    <route id="pt_train_RE5:1" edges="245858162 281243616#0 281243616#1 281243616#2 281243616#3 281243616#4" >
        <stop busStop="4267243042" duration="20" until="67.0"/> <!-- Bad Hersfeld -->
    </route>
    <route id="pt_train_RE5:0" edges="275348780#0 275348780#1 275348780#2 275348780#3 275348780#4 275348780#5" >
        <stop busStop="603236408" duration="20" until="223.0"/> <!-- Bad Hersfeld -->
    </route>
    <route id="pt_bus_470:0" color="red" edges="254600529 860437804 286125147 286125142 286125150 154751819 744142989 261919657 26205488 261919662#0 286110833 244477221#0 98462787 321032843#0 248645889#0 248645889#2 146701421 321032838 321032846#0 321032846#1 321032835 321032848 240545255#0 37335809 240545259 23979548#0 127435987#1 240545277 240545276 102344315 23979550 240561445 887793169 23979552#0 240561427#1 159980917 720137340 124416778#0" >
        <stop busStop="259997083" duration="20" until="484.0"/> <!-- Am Peterstor -->
    </route>
    <route id="pt_train_RB5:1" edges="275348780#0 275348780#1 275348780#2 275348780#3 275348780#4 275348780#5 126992227#0 126992227#1 126992227#2 307276514#0 307276514#1 275348777 26205504 250364941#1 719441084#1" >
        <stop busStop="603236409" duration="20" until="79.0"/> <!-- Ludwigsau-Friedlos -->
        <stop busStop="603236408" duration="20" until="320.0"/> <!-- Bad Hersfeld -->
    </route>
    <route id="pt_train_RB5:0" edges="291627152#0 291627152#1 291627152#2 288111069#0 288111069#1 281243614 245858162 281243616#0 281243616#1 281243616#2 281243616#3 281243616#4" >
        <stop busStop="4267243042" duration="20" until="340.0"/> <!-- Bad Hersfeld -->
        <stop busStop="1275784902" duration="20" until="491.0"/> <!-- Ludwigsau-Friedlos -->
    </route>
    <route id="pt_bus_360:1" edges="-241913077#2 -241913077#1 -241913077#0 -242653667#0 -321022100 -321022099 -72499493 -98438503 -693049760#1 -693049760#0 693049758#0 -693049755#0 -531081828 -606803222#0 -541547520 -970701032 286127297 970701033#0 286110833 244477221#0 98462787 321032843#0 248645889#0 248645889#2 146701421 321032838 321032846#0 321032846#1 321032835 321032848 240545255#0 37335809 240545259 23979548#0 127435987#1 240545277 240545276 102344315 23979550 240561445 887793169 23979552#0 240561427#1 159980917 720137340 124416778#0 124416778#1 159982581 827717810#0 827717810#1 720137341 679781618#0 233791129#1 233791129#2 233791128 25945945#1 25945945#2 -124416801#1 -124416801#0" >
        <stop busStop="-948566449" duration="20" until="75.0"/> <!-- Gewerbegebiet -->
        <stop busStop="259997083" duration="20" until="438.0"/> <!-- Am Peterstor -->
        <stop busStop="4256032974" duration="20" until="542.0"/> <!-- Breitenstraße -->
        <stop busStop="-6205383609" duration="20" until="666.0"/> <!-- Bad Hersfeld Bahnhof -->
    </route>
    <route id="pt_bus_470:1" color="red" edges="-124416801#0 -655079720#0 124416776#0 124416776#2 720137343#0 104668976#0 225006793#0 225006793#1 679781619 240561428#0 240561428#1 159980917 720137340 -720137340 -159980917 159980918#0 33139932 240561452 23979061 23554716#0 23554716#1 102344318 256186558#0 256186558#1 256186559#0 33140246 321032828 321032833 321032830 240545258#0 240545253#0 240545253#1 151702609#0 151702609#1 286130639#0 286130639#1 286130639#2 655129457 321032853#0 248645890 69918207 244477227 244477230 154751884 154751812 261919656 35980408#1 286125148 286125140 286125149 154751829 154751863#1 744142990 457979309" >
        <stop busStop="-4256032973" duration="20" until="38.0"/> <!-- Bad Hersfeld, Bahnhof -->
        <stop busStop="6137947254" duration="20" until="134.0"/> <!-- Breitenstraße -->
        <stop busStop="253161832" duration="20" until="213.0"/> <!-- Am Peterstor -->
        <stop busStop="6137947256" duration="20" until="396.0"/> <!-- Autohof -->
    </route>
    <route id="pt_bus_X33:0" edges="124416773#0 124416773#1 124416773#2 124416773#3 146203660#0 146203660#1 128894638#0 128894638#1 288887619 37214772#2 37214772#3 172009563#0 172009563#1 128894641 128894642 240612228 240612225 -240612227 240612226 240612224 26175074 240545267 127435985 26175086 23773243 51678464 321447538 126812150 321447540#0 321447540#1 26209973#4 26175084#0 26175084#1 127435986#2 -26175083 190904366#0 190904366#1 190904366#2 244486728#0 -101371626#4 -101371626#3 -101371626#1 -101371626#0 23979555#0 23979555#1 348771448#1 23979552#0 240561427#1 159980917 720137340 124416778#0 124416778#1 159982581 827717810#0 827717810#1" >
        <stop busStop="4256032969" duration="20" until="48.0"/> <!-- Asbach, Friedhofsweg -->
    </route>
    <route id="pt_train_ICE_50:0" edges="291627152#0 291627152#1 291627152#2 288111069#0 288111069#1 281243614 245858162 281243616#0 281243616#1 281243616#2 281243616#3 281243616#4" >
        <stop busStop="4267243042" duration="20" until="568.0"/> <!-- Bad Hersfeld -->
    </route>
    <route id="pt_train_ICE_50:1" edges="275348780#0 275348780#1 275348780#2 275348780#3 275348780#4 275348780#5 126992227#0 126992227#1 126992227#2 307276514#0 307276514#1 275348777 26205504 250364941#1 719441084#1" >
        <stop busStop="603236408" duration="20" until="536.0"/> <!-- Bad Hersfeld -->
    </route>
    <route id="pt_bus_300:0" edges="325187141#1 124416776#0 124416776#2 720137343#0 104668976#0 225006793#0 225006793#1 971255571 240561452 23979061 23554716#0 23554716#1 102344318 256186558#0 256186558#1 256186559#0 33140246 321032828 321032833 321032830 240545258#0 37335810#0 37335810#1 240545266 240545260 240545265 240545274 26203167 321421860 321421854 233791123 321421855#0 321421855#1 541887713 67332190 233827759#0 233827759#1 233827759#2 233832326 67332191#0 67332191#1 67332191#2 67332191#3 67332191#6 321421865#0 321421865#1 67332186 321421861#0 321421861#1 321421861#2 321421861#3 321421861#4 321421861#6 321421861#7 321421861#8 321421861#9 321421861#10 341872602 67332189#0 67332189#1 67332189#2 67332189#3 67332189#5 67332189#6 67332189#7 4683013#0 4683013#1" >
        <stop busStop="6189585489" duration="20" until="40.0"/> <!-- Bad Hersfeld Bahnhof -->
        <stop busStop="253161832" duration="20" until="167.0"/> <!-- Am Peterstor -->
        <stop busStop="29756643" duration="20" until="358.0"/> <!-- Wilhelmshof -->
        <stop busStop="790328207" duration="20" until="455.0"/> <!-- Lindenallee -->
        <stop busStop="29756813" duration="20" until="542.0"/> <!-- Bienrückstraße -->
        <stop busStop="6363208027" duration="20" until="644.0"/> <!-- Sorga Forsthaus -->
    </route>
    <route id="pt_bus_300:1" edges="-4683013#1 -4683013#0 -67332189#7 -67332189#6 -67332189#5 -67332189#3 -67332189#2 -67332189#1 -67332189#0 -341872602 -321421861#10 -321421861#9 -321421861#8 -321421861#7 -321421861#6 -321421861#5 -321421861#3 -321421861#2 -321421861#1 -321421861#0 -67332186 -321421865#1 -321421865#0 -67332191#6 -67332191#4 -67332191#2 -67332191#1 -67332191#0 -233832326 -233827759#2 -233827759#1 -233827759#0 -67332190 -541887713 -321421855#1 -321421855#0 -233791123 -321421854 -321421860 -26203167 -240545275 240545268 240545263 26205477 65547459 240545261 240545279 240545259 23979548#0 127435987#1 240545277 240545276 102344315 23979550 240561454 140124287 286119049 233791129#1 233791129#2 233791128 25945945#1 25945945#2 325187141#0 325187141#1" >
        <stop busStop="-6363208028" duration="20" until="113.0"/> <!-- Sorga Forsthaus -->
        <stop busStop="-807097875" duration="20" until="215.0"/> <!-- Bienrückstraße -->
        <stop busStop="-3281721222" duration="20" until="305.0"/> <!-- Lindenallee -->
        <stop busStop="-6363208029" duration="20" until="390.0"/> <!-- Wilhelmshof -->
        <stop busStop="259997083" duration="20" until="578.0"/> <!-- Am Peterstor -->
        <stop busStop="6189585489" duration="20" until="731.0"/> <!-- Bad Hersfeld Bahnhof -->
    </route>
    <route id="pt_bus_X33:1" edges="159980918#0 124416783#1 124416781#0 124416781#1 101371626#0 101371626#1 101371626#3 101371626#4 190904362#1 190904362#3 190904362#5 190904363 26209972 182210575#0 182210575#1 104494833-AddedOnRampEdge 104494833 -240545267 -26175079 -240612224 -240612226 240612227 -240612225 -240612228 -128894642 -128894641 -172009563#1 -172009563#0 37214772#4 37214772#1 -288887619 -128894638#1 -128894638#0 -146203660#1 -146203660#0 -124416773#3 -124416773#2 -124416773#1 -124416773#0 124416773#0 124416773#1 124416773#2 124416773#3 146203660#0 146203660#1 128894638#0 128894638#1 288887619 37214772#2 37214772#3 172009563#0 172009563#1 128894641 128894642 240612228 -240612228 -128894642" >
        <stop busStop="6137947254" duration="20" until="31.0"/> <!-- Breitenstraße -->
        <stop busStop="4256032976" duration="20" until="130.0"/> <!-- Bad Hersfeld, Hainstraße -->
        <stop busStop="-4256034101" duration="20" until="339.0"/> <!-- Ziegelei -->
        <stop busStop="-4256032967" duration="20" until="433.0"/> <!-- Abzweig Eichhof -->
        <stop busStop="-4256032969" duration="20" until="568.0"/> <!-- Asbach, Friedhofsweg -->
    </route>
    <route id="pt_bus_380:0" edges="124416773#0 124416773#1 124416773#2 124416773#3 146203660#0 146203660#1 128894638#0 128894638#1 288887619 37214772#2 37214772#3 172009563#0 172009563#1 128894641 128894642 240612228 105014788 -645561019#1 -645561019#0 -124416766 -29074526#3 -29074526#2 -29074526#1 -29074526#0 65547495#0 65547495#1 65547495#2 65547495#3 65547495#4 508611302#0 508611302#1 128896381 128896382 480697655 244486723#0 244486723#1 244486723#2 -104709800#4 -104709800#3 -104709800#2 -104709800#1 443007340 26222158#0 624255414#1 128897281#0 128897281#1 26013146#1 26013146#2 26013146#3 26013146#4 26013145#0 26013145#1 26013145#2 26013145#3 25946391" >
        <stop busStop="1423153563" duration="20" until="149.0"/> <!-- Abzweig Eichhof -->
        <stop busStop="1423153572" duration="20" until="237.0"/> <!-- Ziegelei -->
        <stop busStop="-1423153571" duration="20" until="341.0"/> <!-- Bad Hersfeld, St.-Elisabeth-Krankenhaus -->
        <stop busStop="2873550173" duration="20" until="438.0"/> <!-- Bad Hersfeld, Seniorenwohnheim -->
        <stop busStop="2873550175" duration="20" until="538.0"/> <!-- Stadthalle -->
        <stop busStop="-2873550176" duration="20" until="602.0"/> <!-- Bad Hersfeld, Südtor -->
        <stop busStop="1423165927" duration="20" until="757.0"/> <!-- Bad Hersfeld, Neumarkt -->
        <stop busStop="2873550178" duration="20" until="819.0"/> <!-- Bad Hersfeld, Konrad-Duden-Schule -->
    </route>
    <route id="pt_bus_345:5" edges="325187141#1 124416776#0 124416776#2 720137343#0 104668976#0 225006793#0 225006793#1 679781619 240561428#0 240561428#1 159980917 720137340 124416778#0 124416778#1 159982581 827717810#0 827717810#1 720137341 679781618#0 23979554 225006793#0 225006793#1 971255571 240561452 23979061 23554716#0 23554716#1 102344318 256186558#0 256186558#1 256186559#0 33140246 321032828 321032833 321032830 240545258#0 37335810#0 37335810#1 159159345 233824688 151614067 321426008 680168807 159818918#0 159818918#1 200313016 321426012 321426017 321426015 321426011 321426002#0 321426002#1 321426002#2 321426002#3 321426002#4 321426002#5 742003277" >
        <stop busStop="6189585489" duration="20" until="60.0"/> <!-- Bad Hersfeld Bahnhof -->
        <stop busStop="4425634911" duration="20" until="231.0"/> <!-- Breitenstraße -->
        <stop busStop="253161832" duration="20" until="367.0"/> <!-- Am Peterstor -->
        <stop busStop="2441299019" duration="20" until="638.0"/> <!-- None -->
    </route>
    <route id="pt_bus_349:0" edges="-4683013#1 -4683013#0 -67332189#7 -67332189#6 -67332189#5 -67332189#3 -67332189#2 -67332189#1 -67332189#0 -341872602 -321421861#10 -321421861#9 -321421861#8 -321421861#7 -321421861#6 -321421861#5 -321421861#3 -321421861#2 -321421861#1 -321421861#0 -67332186 -321421865#1 -321421865#0 -67332191#6 -67332191#4 -67332191#2 -67332191#1 -67332191#0 -233832326 -233827759#2 -233827759#1 -233827759#0 -67332190 -541887713 -321421855#1 -321421855#0 -233791123 -321421854 -321421860 -26203167 -240545275 240545268 240545263 26205477 65547459 240545261 240545279 240545259 23979548#0 127435987#1 240545277 240545276 102344315 23979550 240561445 887793169 23979552#0 240561427#1 159980917 720137340 124416778#0 124416778#1 159982581 827717810#0 827717810#1 720137341 679781618#0 233791129#1 233791129#2 233791128 25945945#1 25945945#2 325187141#0 325187141#1" >
        <stop busStop="4425634911" duration="20" until="643.0"/> <!-- Breitenstraße -->
        <stop busStop="6189585489" duration="20" until="769.0"/> <!-- Bad Hersfeld Bahnhof -->
    </route>
    <route id="pt_train_ICE_50:3" edges="275348780#0 275348780#1 275348780#2 275348780#3 275348780#4 275348780#5 126992227#0 126992227#1 126992227#2 307276514#0 307276514#1 275348777 26205504 250364941#1 719441084#1" >
        <stop busStop="603236408" duration="20" until="646.0"/> <!-- Bad Hersfeld -->
    </route>
    <route id="pt_bus_330:0" edges="-742003272 -321426002#5 -321426002#4 -321426002#3 -321426002#2 -321426002#1 -321426002#0 25805460 321426021 159820357 65547459 240545261 240545279 240545259 23979548#0 127435987#1 240545277 240545276 102344315 23979550 240561454 140124287 286119049 233791129#1 233791129#2 233791128 25945945#1 25945945#2 325187141#0 325187141#1 124416776#0 124416776#2 720137343#0 104668976#0 225006793#0 225006793#1 679781619 240561428#0 240561428#1 159980917 720137340 124416778#0 124416778#1 159982581 827717810#0 827717810#1 720137341 679781618#0 23979554 225006793#0 225006793#1 971255571 240561452 23979061 23554716#0 23554716#1 102344318 256186558#0 256186558#1 256186559#0 33140246 321032828 321032833 321032830 240545258#0 37335810#0 37335810#1 240545266 240545260 240545265 240545274 26203167 321421860 321421854 233791123 321421855#0 321421855#1 541887713 67332190 233827759#0 233827759#1 233827759#2 233832326 67332191#0 67332191#1 67332191#2 67332191#3 67332191#6 321421865#0 321421865#1 67332186 321421861#0 321421861#1 321421861#2 321421861#3 321421861#4 321421861#6 321421861#7 321421861#8 321421861#9 321421861#10 341872602 67332189#0 67332189#1 67332189#2 67332189#3 67332189#5 67332189#6 67332189#7 4683013#0 4683013#1" >
        <stop busStop="-281476590" duration="20" until="39.0"/> <!-- None -->
        <stop busStop="6189585489" duration="20" until="335.0"/> <!-- Bad Hersfeld Bahnhof -->
        <stop busStop="4425634911" duration="20" until="453.0"/> <!-- Breitenstraße -->
        <stop busStop="253161832" duration="20" until="601.0"/> <!-- Am Peterstor -->
        <stop busStop="29756643" duration="20" until="814.0"/> <!-- Wilhelmshof -->
        <stop busStop="790328207" duration="20" until="911.0"/> <!-- Lindenallee -->
        <stop busStop="29756813" duration="20" until="997.0"/> <!-- Bienrückstraße -->
        <stop busStop="6363208027" duration="20" until="1098.0"/> <!-- Sorga Forsthaus -->
    </route>
    <route id="pt_bus_349:1" edges="325187141#1 124416776#0 124416776#2 720137343#0 104668976#0 225006793#0 225006793#1 679781619 240561428#0 240561428#1 159980917 720137340 124416778#0 124416778#1 159982581 827717810#0 827717810#1 720137341 679781618#0 23979554 225006793#0 225006793#1 971255571 240561452 23979061 23554716#0 23554716#1 102344318 256186558#0 256186558#1 256186559#0 33140246 321032828 321032833 321032830 240545258#0 37335810#0 37335810#1 240545266 240545260 240545265 240545274 26203167 321421860 321421854 233791123 321421855#0 321421855#1 541887713 67332190 233827759#0 233827759#1 233827759#2 233832326 67332191#0 67332191#1 67332191#2 67332191#3 67332191#6 321421865#0 321421865#1 67332186 321421861#0 321421861#1 321421861#2 321421861#3 321421861#4 321421861#6 321421861#7 321421861#8 321421861#9 321421861#10 341872602 67332189#0 67332189#1 67332189#2 67332189#3 67332189#5 67332189#6 67332189#7 4683013#0 4683013#1" >
        <stop busStop="6189585489" duration="20" until="55.0"/> <!-- Bad Hersfeld Bahnhof -->
        <stop busStop="4425634911" duration="20" until="174.0"/> <!-- Breitenstraße -->
    </route>
    <route id="pt_bus_345:0" edges="-40156606#5 -40156606#4 -40156606#3 -40156606#2 -40156606#1 -40156606#0 -37728685#5 -37728685#4 -37728685#3 -37728685#2 -37728685#1 -37728685#0 -37728684#1 -37728684#0 -200313022#17 -200313022#16 -200313022#15 -200313022#14 -200313022#13 -200313022#12 -200313022#11 -200313022#9 -200313022#8 -200313022#7 -200313022#3 -200313022#2 -200313022#0 159818918#0 159818918#1 200313016 321426012 321426017 321426015 321426011 25805460 321426021 159820357 65547459 240545261 240545279 240545259 23979548#0 127435987#1 240545277 240545276 102344315 23979550 240561445 887793169 23979552#0 240561427#1 159980917 720137340 124416778#0 124416778#1 159982581 827717810#0 827717810#1 720137341 679781618#0 233791129#1 233791129#2 233791128 25945945#1 25945945#2 325187141#0 325187141#1" >
        <stop busStop="-6989886667" duration="20" until="248.0"/> <!-- Grenzebachstraße -->
        <stop busStop="-6989886662" duration="20" until="337.0"/> <!-- Rauherweg -->
        <stop busStop="-990476632" duration="20" until="399.0"/> <!-- Wippershainer Straße -->
        <stop busStop="281476501" duration="20" until="470.0"/> <!-- Aqua Fit -->
        <stop busStop="259997083" duration="20" until="606.0"/> <!-- Am Peterstor -->
        <stop busStop="4425634911" duration="20" until="716.0"/> <!-- Breitenstraße -->
        <stop busStop="6189585489" duration="20" until="822.0"/> <!-- Bad Hersfeld Bahnhof -->
    </route>
    <route id="pt_train_ICE_50:2" edges="291627152#0 291627152#1 291627152#2 288111069#0 288111069#1 281243614 245858162 281243616#0 281243616#1 281243616#2 281243616#3 281243616#4" >
        <stop busStop="4267243042" duration="20" until="790.0"/> <!-- Bad Hersfeld -->
    </route>
    <route id="pt_bus_340:1" edges="325187141#1 124416776#0 124416776#2 720137343#0 104668976#0 225006793#0 225006793#1 679781619 240561428#0 240561428#1 159980917 720137340 124416778#0 124416778#1 159982581 827717810#0 827717810#1 720137341 679781618#0 23979554 225006793#0 225006793#1 971255571 240561452 23979061 23554716#0 23554716#1 102344318 256186558#0 256186558#1 256186559#0 33140246 321032828 321032833 321032830 240545258#0 37335810#0 37335810#1 240545266 240545260 240545265 240545274 26203167 321421860 321421854 233791123 321421855#0 321421855#1 541887713 67332190 233827759#0 233827759#1 233827759#2 233832326 67332191#0 67332191#1 67332191#2 67332191#3 67332191#6 321421865#0 321421865#1 67332186 321421861#0 321421861#1 321421861#2 321421861#3 321421861#4 321421861#6 321421861#7 321421861#8 321421861#9 321421861#10 341872602 67332189#0 67332189#1 67332189#2 67332189#3 67332189#5 67332189#6 67332189#7 4683013#0 4683013#1" >
        <stop busStop="6189585489" duration="20" until="47.0"/> <!-- Bad Hersfeld Bahnhof -->
        <stop busStop="4425634911" duration="20" until="166.0"/> <!-- Breitenstraße -->
        <stop busStop="253161832" duration="20" until="341.0"/> <!-- Am Peterstor -->
        <stop busStop="29756643" duration="20" until="547.0"/> <!-- Wilhelmshof -->
        <stop busStop="790328207" duration="20" until="645.0"/> <!-- Lindenallee -->
        <stop busStop="29756813" duration="20" until="730.0"/> <!-- Bienrückstraße -->
        <stop busStop="6363208027" duration="20" until="831.0"/> <!-- Sorga Forsthaus -->
    </route>
    <route id="pt_bus_380:1" edges="-124416801#0 -655079720#0 124416776#0 124416776#2 720137343#0 104668976#0 225006793#0 225006793#1 679781619 240561428#0 240561428#1 159980917 720137340 -720137340 -159980917 159980918#0 124416783#1 124416781#0 124416781#1 101371626#0 101371626#1 101371626#3 101371626#4 34750555#0 244486735#0 244486735#1 244486735#3 104709800#0 104709800#2 104709800#3 104709800#4 244486730 244486725#0 244486725#1 244486725#2 283502279 -128896381 -508611302#1 -508611302#0 -65547495#4 -65547495#3 -65547495#2 -65547495#1 -65547495#0 29074526#0 29074526#1 29074526#2 29074526#3 -283502278#2 182689756 283502277 128894649 240612227 -240612225 -240612228 -128894642 -128894641 -172009563#1 -172009563#0 37214772#4 37214772#1 -288887619 -128894638#1 -128894638#0 -146203660#1 -146203660#0 -124416773#3 -124416773#2 -124416773#1 -124416773#0" >
        <stop busStop="-4256032973" duration="20" until="39.0"/> <!-- Bad Hersfeld, Bahnhof -->
        <stop busStop="6137947254" duration="20" until="135.0"/> <!-- Breitenstraße -->
        <stop busStop="1423179202" duration="20" until="242.0"/> <!-- Bad Hersfeld, Hainstraße -->
        <stop busStop="2873550177" duration="20" until="379.0"/> <!-- Bad Hersfeld, Südtor -->
        <stop busStop="-1384946492" duration="20" until="463.0"/> <!-- Bad Hersfeld, Stadthalle -->
        <stop busStop="-2873550174" duration="20" until="553.0"/> <!-- Bad Hersfeld, Seniorenwohnheim -->
        <stop busStop="1384946480" duration="20" until="649.0"/> <!-- Bad Hersfeld, St.-Elisabeth-Krankenhaus -->
        <stop busStop="-4256034101" duration="20" until="743.0"/> <!-- Ziegelei -->
        <stop busStop="-1423153564" duration="20" until="837.0"/> <!-- Abzweig Eichhof -->
    </route>
    <route id="pt_bus_345:1" edges="-40156606#5 -40156606#4 -40156606#3 -40156606#2 -40156606#1 -40156606#0 -37728685#5 -37728685#4 -37728685#3 -37728685#2 -37728685#1 -37728685#0 -37728684#1 -37728684#0 -200313022#17 -200313022#16 -200313022#15 -200313022#14 -200313022#13 -200313022#12 -200313022#11 -200313022#9 -200313022#8 -200313022#7 -200313022#3 -200313022#2 -200313022#0 159818918#0 159818918#1 200313016 321426012 321426017 321426015 321426011 25805460 321426021 159820357 65547459 240545261 240545279 240545259 23979548#0 127435987#1 240545277 240545276 102344315 23979550 240561445 887793169 23979552#0 240561427#1 159980917 720137340 124416778#0 124416778#1 159982581 827717810#0 827717810#1 720137341 679781618#0 233791129#1 233791129#2 233791128 25945945#1 25945945#2 325187141#0 325187141#1" >
        <stop busStop="-6989886667" duration="20" until="274.0"/> <!-- Grenzebachstraße -->
        <stop busStop="-6989886662" duration="20" until="363.0"/> <!-- Rauherweg -->
        <stop busStop="-990476632" duration="20" until="425.0"/> <!-- Wippershainer Straße -->
        <stop busStop="281476501" duration="20" until="496.0"/> <!-- Aqua Fit -->
        <stop busStop="259997083" duration="20" until="638.0"/> <!-- Am Peterstor -->
        <stop busStop="4425634911" duration="20" until="782.0"/> <!-- Breitenstraße -->
        <stop busStop="6189585489" duration="20" until="886.0"/> <!-- Bad Hersfeld Bahnhof -->
    </route>
    <route id="pt_bus_345:4" edges="325187141#1 124416776#0 124416776#2 720137343#0 104668976#0 225006793#0 225006793#1 679781619 240561428#0 240561428#1 159980917 720137340 124416778#0 124416778#1 159982581 827717810#0 827717810#1 720137341 679781618#0 23979554 225006793#0 225006793#1 971255571 240561452 23979061 23554716#0 23554716#1 102344318 256186558#0 256186558#1 256186559#0 33140246 321032828 321032833 321032830 240545258#0 37335810#0 37335810#1 159159345 233824688 151614067 321426008 680168807 200313022#0 200313022#2 200313022#3 200313022#4 200313022#8 200313022#9 200313022#11 200313022#12 200313022#13 200313022#14 200313022#15 200313022#16 200313022#17 37728684#0 37728684#1 37728684#2 37728685#1 37728685#2 37728685#3 37728685#4 37728685#5 40156606#0 40156606#1 40156606#2 40156606#3 40156606#4 40156606#5" >
        <stop busStop="6189585489" duration="20" until="40.0"/> <!-- Bad Hersfeld Bahnhof -->
        <stop busStop="4425634911" duration="20" until="157.0"/> <!-- Breitenstraße -->
        <stop busStop="253161832" duration="20" until="319.0"/> <!-- Am Peterstor -->
        <stop busStop="6989886658" duration="20" until="494.0"/> <!-- Wippershainer Straße -->
        <stop busStop="6367373310" duration="20" until="554.0"/> <!-- Rauherweg -->
        <stop busStop="6367373319" duration="20" until="644.0"/> <!-- Grenzebachstraße -->
    </route>
    <route id="pt_bus_340:2" edges="-4683013#1 -4683013#0 -67332189#7 -67332189#6 -67332189#5 -67332189#3 -67332189#2 -67332189#1 -67332189#0 -341872602 -321421861#10 -321421861#9 -321421861#8 -321421861#7 -321421861#6 -321421861#5 -321421861#3 -321421861#2 -321421861#1 -321421861#0 -67332186 -321421865#1 -321421865#0 -67332191#6 -67332191#4 -67332191#2 -67332191#1 -67332191#0 -233832326 -233827759#2 -233827759#1 -233827759#0 -67332190 -541887713 -321421855#1 -321421855#0 -233791123 -321421854 -321421860 -26203167 -240545275 240545268 240545263 26205477 65547459 240545261 240545279 240545259 23979548#0 127435987#1 240545277 240545276 102344315 23979550 240561445 887793169 23979552#0 240561427#1 159980917 720137340 124416778#0 124416778#1 159982581 827717810#0 827717810#1 720137341 679781618#0 233791129#1 233791129#2 233791128 25945945#1 25945945#2 325187141#0 325187141#1" >
        <stop busStop="-6363208028" duration="20" until="111.0"/> <!-- Sorga Forsthaus -->
        <stop busStop="-807097875" duration="20" until="214.0"/> <!-- Bienrückstraße -->
        <stop busStop="-3281721222" duration="20" until="306.0"/> <!-- Lindenallee -->
        <stop busStop="-6363208029" duration="20" until="390.0"/> <!-- Wilhelmshof -->
        <stop busStop="259997083" duration="20" until="576.0"/> <!-- Am Peterstor -->
        <stop busStop="4256032974" duration="20" until="693.0"/> <!-- Breitenstraße -->
        <stop busStop="6189585489" duration="20" until="839.0"/> <!-- Bad Hersfeld Bahnhof -->
    </route>
    <route id="pt_bus_345:2" edges="-40156606#5 -40156606#4 -40156606#3 -40156606#2 -40156606#1 -40156606#0 -37728685#5 -37728685#4 -37728685#3 -37728685#2 -37728685#1 -37728685#0 -37728684#1 -37728684#0 -200313022#17 -200313022#16 -200313022#15 -200313022#14 -200313022#13 -200313022#12 -200313022#11 -200313022#9 -200313022#8 -200313022#7 -200313022#3 -200313022#2 -200313022#0 159818918#0 159818918#1 200313016 321426012 321426017 321426015 321426011 25805460 321426021 159820357 65547459 240545261 240545279 240545259 23979548#0 127435987#1 240545277 240545276 102344315 23979550 240561445 887793169 23979552#0 240561427#1 159980917 720137340 124416778#0 124416778#1 159982581 827717810#0 827717810#1 720137341 679781618#0 233791129#1 233791129#2 233791128 25945945#1 25945945#2 325187141#0 325187141#1" >
        <stop busStop="-6989886667" duration="20" until="307.0"/> <!-- Grenzebachstraße -->
        <stop busStop="-6989886662" duration="20" until="395.0"/> <!-- Rauherweg -->
        <stop busStop="-990476632" duration="20" until="457.0"/> <!-- Wippershainer Straße -->
        <stop busStop="281476501" duration="20" until="527.0"/> <!-- Aqua Fit -->
        <stop busStop="259997083" duration="20" until="711.0"/> <!-- Am Peterstor -->
        <stop busStop="4425634911" duration="20" until="859.0"/> <!-- Breitenstraße -->
        <stop busStop="6189585489" duration="20" until="986.0"/> <!-- Bad Hersfeld Bahnhof -->
    </route>
    <route id="pt_bus_345:6" edges="325187141#1 124416776#0 124416776#2 720137343#0 104668976#0 225006793#0 225006793#1 679781619 240561428#0 240561428#1 159980917 720137340 124416778#0 124416778#1 159982581 827717810#0 827717810#1 720137341 679781618#0 23979554 225006793#0 225006793#1 971255571 240561452 23979061 23554716#0 23554716#1 102344318 256186558#0 256186558#1 256186559#0 33140246 321032828 321032833 321032830 240545258#0 37335810#0 37335810#1 159159345 233824688 151614067 321426008 680168807 200313022#0 200313022#2 200313022#3 200313022#4 200313022#8 200313022#9 200313022#11 200313022#12 200313022#13 200313022#14 200313022#15 200313022#16 200313022#17 37728684#0 37728684#1 37728684#2 37728685#1 37728685#2 37728685#3 37728685#4 37728685#5 40156606#0 40156606#1 40156606#2 40156606#3 40156606#4 40156606#5" >
        <stop busStop="6189585489" duration="20" until="76.0"/> <!-- Bad Hersfeld Bahnhof -->
        <stop busStop="4425634911" duration="20" until="248.0"/> <!-- Breitenstraße -->
        <stop busStop="253161832" duration="20" until="407.0"/> <!-- Am Peterstor -->
        <stop busStop="6989886658" duration="20" until="574.0"/> <!-- Wippershainer Straße -->
        <stop busStop="6367373310" duration="20" until="633.0"/> <!-- Rauherweg -->
        <stop busStop="6367373319" duration="20" until="724.0"/> <!-- Grenzebachstraße -->
    </route>