<?xml version="1.0" encoding="UTF-8"?>

<!-- generated on 2022-03-11 13:26:47 by Eclipse SUMO duarouter Version v1_11_0+0960-9a7789007a4
<configuration xmlns:xsi="http://www.w3.org/2001/XMLSchema-instance" xsi:noNamespaceSchemaLocation="http://sumo.dlr.de/xsd/duarouterConfiguration.xsd">

    <input>
        <net-file value="osm_edited.net.xml.gz"/>
        <route-files value="osm.passenger.trips.xml"/>
    </input>

    <output>
        <output-file value="routes.rou.xml"/>
        <alternatives-output value="routes.rou.alt.xml"/>
    </output>

    <time>
        <begin value="0"/>
        <end value="3600"/>
    </time>

    <report>
        <no-warnings value="true"/>
        <ignore-errors value="true"/>
        <no-step-log value="true"/>
    </report>

</configuration>
-->

<routes xmlns:xsi="http://www.w3.org/2001/XMLSchema-instance" xsi:noNamespaceSchemaLocation="http://sumo.dlr.de/xsd/routes_file.xsd">
    <vType id="veh_passenger" vClass="passenger"/>
    <vehicle id="veh0" type="veh_passenger" depart="0.00" departLane="best">
        <route edges="184630311#1 184630311#2 184630311#3 -157253918#5 -157253918#4 -157253918#3 -157253918#2 -157253918#1 -157539099#5 -157539099#4 -157539099#3 -157539099#2 -157539099#1 -157539099#0 -157539096#2 -157539096#1 26013133#0 157539102#0 26222421#0 26222421#1 240561421#0 240561458#1 679781617 23979554 225006793#0 225006793#1 679781619 23979551#0 23979551#2 23979725 124416783#0 124416783#1 124416781#0 124416781#1 101371626#0 101371626#1 101371626#3 101371626#4 190904362#1 190904362#3 190904362#5 190904363 26209972 104494836#0 104494836#1 104494836#2 104494836#3 26209973#1 -179966411#2 -179966411#1 -179966411#0 -179631747 -179631748 179631758#4 179631750#0 179631750#1 179631751 -179631754#1 177654531#0 250264072 -181713521 -181713520 -122939233#1"/>
    </vehicle>
    <vehicle id="veh1" type="veh_passenger" depart="0.69" departLane="best">
        <route edges="26175074 240545267 127435985 26175086 23773243 51678464 321447538 126812150 321447540#0 321447540#1 26209973#4 26175084#0 26175084#1 127435986#2 -26175083 190904366#0 190904366#2 244486735#0 244486735#1 244486735#3 104709800#0 104709800#2 104709800#3 E21 244486738#0 104709807#0 34750425#2 34750425#4 34750425#5 -23696275#23 -23696275#22 -23696275#20 -23696275#18 -23696275#17 -23696275#16 -23696275#15 -23696275#14 -23696275#13 -23696275#12 -23696275#11 -23696275#10 -23696275#9 -23696275#8 -23696275#7 -23696275#6 -23688920#7 26581772#0"/>
    </vehicle>
    <vehicle id="veh2" type="veh_passenger" depart="1.37" departLane="best">
        <route edges="49355235#1 49355235#2 -49355235#2 -49355235#1 -49355235#0 41890722#1 902733553 -845855186#1 -23554734#7 -23554734#5 -23554734#4 -23554734#3 -23554734#2 -23554734#1 -23554734#0 -327128527 -127435997 -127563884#2 -127563884#0 -902042032#2 -902042032#1 -902042032#0 -902040676#1 -26135695#1 -26135695#0 902040675 902040674#0 -34750408#2 -34750408#1 -23696275#23 -23696275#22 -23696275#20 -23696275#18 -23696275#17 -23696275#16 -23696275#15 -23696275#14 -23696275#13 -23696275#12 -23696275#11 -23696275#10 -23696275#9 -23696275#8 -23696275#7 -23696275#6 -23696275#5 -23696275#4 449592486 537585301 159949969#0 159949969#1 159949969#2 159949969#3 -172189511#9 -172189511#8 -172189511#7"/>
    </vehicle>
    <vehicle id="veh3" type="veh_passenger" depart="2.06" departLane="best" departSpeed="max">
        <route edges="-54225653#2 -70848446 146203660#0 146203660#1 128894638#0 128894638#1 288887619 37214772#2 37214772#3 172009563#0 172009563#1 128894641 128894642 240612228 105014788 -645561019#1 -645561019#0 -124416766 -29074526#3 -29074526#2 -29074526#1 -29074526#0 65547495#0 65547495#1 65547495#2 65547495#3 65547495#4 34315028 508611306 -104709794#3 -104709794#2 -104709794#1 E20 104709807#0 34750425#2 34750425#4 34750425#5 34750408#1 34750408#2 902040674#1 23554748 26135695#0 26135695#1 902040676#0 902042032#0 902042032#1 902042032#2 127563884#0 127563884#2 127435997 327128527 -304378842 23554734#1 23554734#2 23554734#3 23554734#4 23554734#5 23554734#6 41890720#1 -125515158#1"/>
    </vehicle>
    <vehicle id="veh4" type="veh_passenger" depart="2.74" departLane="best" departSpeed="max">
        <route edges="-26099177 -26013146#4 -26013146#3 -26013146#2 -26013146#1 -26013146#0 -128897281#1 -128897281#0 -624255414#1 -26222158#1 104709800#0 104709800#2 104709800#3 E21 244486738#0 104709807#0 159950717#0 50371428#0 50371428#1 159954689#0 159954689#1 159954689#2 541887704 159954695#4"/>
    </vehicle>
    <vehicle id="veh5" type="veh_passenger" depart="3.43" departLane="best">
        <route edges="-107469181#1 -107469181#0 107469181#0 107469181#1 107469181#2 -181623918#5 -181623918#4 -181623918#3 -181623918#2 -181623918#1 65547495#0 65547495#1 65547495#2 65547495#3 65547495#4 34315028 508611306 -104709794#3 -104709794#2 -104709794#1 E20 104709807#0 34750425#2 34750425#4 34750425#5 -23696275#23 -23696275#22 -23696275#20 -23696275#18 -23696275#17 -23696275#16 -23696275#15 -23696275#14 -23696275#13 -23696275#12 -23696275#11 -23696275#10 -23696275#9 -23696275#8 -23696275#7 -23696275#6 -23696275#5 -23696275#4 -23696275#3 -28534933#3 -28534933#2 -28534933#1 -28534933#0"/>
    </vehicle>
    <vehicle id="veh6" type="veh_passenger" depart="4.11" departLane="best">
        <route edges="217908999#0 217908999#1 -172189511#2 -172189511#1 -172189511#0 902040674#0 902040674#1 23554748 26135695#0 26135695#1 902040676#0 -240561442#3 -240561442#1 -240561442#0 65526296#0 240561441#1 240561441#2 240561439 E2 679781617 23979554 225006793#0 225006793#1 971255571 240561452 23979061 23554716#0 102344318 256186558#0 256186558#1 256186559#0 33140246 321032828 321032833 321032830 240545253#1 321032855 655129457 321032853#0 248645890 98504017#0 244477223#0 244477223#1 146701420 970701031 261919660 261919661#0 33141498#0 33141498#1 244477224 462191392 679568117 462191391#0 462191391#1 991190913#2 991190913#3 133567552#0 184405824#0 184405824#1 184405824#2 184405824#3"/>
    </vehicle>
    <vehicle id="veh7" type="veh_passenger" depart="4.80" departLane="best">
        <route edges="-26205480#1 -26205480#0 -321421856 -321421867 -233826136 -65526285 -321421866 -321421860 -26203167 -240545275 240545268 240545263 26205477 65547459 240545261 240545279 240545259 23979548#0 240545277 240545276 102344315 23979550 240561454 140124287 286119049 680563955 157571148#0 157571141 240561430 240561437#0 240561437#0.28 240561437#3 240561442#0 240561442#1 240561442#3 -902040676#1 -26135695#1 -26135695#0 902040675 172189511#0 172189511#1 172189511#2 -217908999#1 -217908999#0 212112831#4 212112831#5 23696275#15 23696275#16"/>
    </vehicle>
    <vehicle id="veh8" type="veh_passenger" depart="5.49" departLane="best">
        <route edges="321047093 321047088 193769369 193769371 321047095 193769373 -321047081 -321047095 -193769371 -193769369 -321047088 -321047093 -321047086 -59595669 -159989038 101368427 101368444 321047071 -321047062#1 -321047062#0 -321047078#1 -321047078#0 -204019257 -321047080 -159190098 159190099 33140246 321032828 321032833 321032830 37335810#0 37335810#1 240545266 240545260 240545265 240545274 26203167 321421860 233791123 321421855#0 321421855#1 541887713 67332190 233827759#0 233827759#1 233827759#2 233832326 67332191#0 67332191#1 67332191#2 67332191#3 67332191#6 321421865#0 321421865#1 67332186 321421861#0 321421861#1 321421861#2 321421861#3 321421861#4 66758072#1 66758072#2 66758072#3 -101374526"/>
    </vehicle>
    <vehicle id="veh9" type="veh_passenger" depart="6.17" departLane="best">
        <route edges="321032859#0 321032859#1 321032865#0 321032865#1 25805430#0 25805430#1 317455908#0 317455908#1 -321032865#1 -321032865#0 -321032859#1 -321032859#0 248645890 69918207 244477227 244477230 154751884 154751812 261919656 35980408#1 286125148 286125140 286125149"/>
    </vehicle>
    <vehicle id="veh10" type="veh_passenger" depart="6.86" departLane="best">
        <route edges="-370552766#0 -370552767#2 -370552767#1 -370552767#0 -27033036 -318085257#4 -318085257#3 -318085257#2 -318085257#1 -318085257#0 -175070740#2 -175070740#1 -175070740#0 -321421862#8 -321421862#7 -321421862#6 -321421862#5 -321421862#4 -321421862#3 -321421862#2 -321421862#1 -321421865#1 -321421865#0 -67332191#6 -67332191#4 -67332191#2 -67332191#1 -67332191#0 -233832326 -233827759#2 -233827759#1 -233827759#0 -67332190 -541887713 -321421855#1 -321421855#0 -233791123 321421866 65526285 233826136 321421868 151585858 26205480#0 26205480#1 26205480#2 26205480#3 151585859#1 151585859#2 151585859#4 151585859#5 151585859#6 -25805445#1"/>
    </vehicle>
    <vehicle id="veh11" type="veh_passenger" depart="7.54" departLane="best">
        <route edges="682841361#0 682841361#1 682841361#2 25945947#0 25945947#1 25945948#0 25945948#1 25945948#2 682841356 102344318 256186558#0 256186558#1 256186559#0 33140246 321032828 321032833 321032830 37335810#0 37335810#1 240545266 240545260 240545265 240545274 26203167 321421860 233791123 321421855#0 321421855#1 541887713 67332190 233827759#0 233827759#1 233827759#2 233832326 67332191#0 67332191#1 67332191#2 67332191#3 67332191#6 321421865#0 321421865#1 321421862#1 321421862#2 321421862#3 321421862#4 321421862#5 321421862#6 321421862#7 321421862#8 175070741 175070740#1 175070740#2 318085257#0 -60253078#4 -60253078#2 -60253078#1 -60253078#0 -60253088#6"/>
    </vehicle>
    <vehicle id="veh12" type="veh_passenger" depart="8.23" departLane="best" departSpeed="max">
        <route edges="-159819717#4 159819716 -200313022#9 -200313022#8 -200313022#7 -200313022#3 -200313022#2 -200313022#1 -200313022#0 159818918#0 159818918#1 200313016 321426012 321426017 321426015 321426011 321426014 25805460 321426021 159820357 65547459 240545261 225006792#0 37335807#1 240545273#0 240545269 26205496 26209969 321447539 51678656 104494836#3 26209973#1 -179966411#2 -179966411#1 -179966411#0 -179631747 -179631748 179631758#4 179631750#0 179631750#1 179631751 -179631754#1 179631755#0 179631755#1 179631755#2 -178503651#5 -178503651#4 -178503651#3"/>
    </vehicle>
    <vehicle id="veh13" type="veh_passenger" depart="8.92" departLane="best">
        <route edges="37033885#1 -178592412#9 -178592412#8 -178592412#7 -178592412#6 -178592412#5 -178592412#4 -178592412#3 -178592412#2 -178592412#1 -178592412#0 -37033885#1 34160113#17 34160113#18 178503651#0 178503651#1 178503651#2 178503651#3 178503651#4 178503651#5 177186235#0 177186235#1 443002920 179631754#1 179631746 179631749 179631758#2 179631758#3 179631748 179631747 179966411#0 179966411#1 179966411#2 26209973#2 26209973#3 26209973#4 26175084#0 26175084#1 127435986#2 -26175083 190904366#0 190904366#2 -101371626#4 -101371626#3 -101371626#1 -101371626#0 23979555#0 23979555#1 286119051#1 140124287 286119049 680563955 157571148#0 157571141 240561430"/>
    </vehicle>
    <vehicle id="veh14" type="veh_passenger" depart="9.60" departLane="best">
        <route edges="321047062#1 321047062#2 -101368444 -34750804 41050382#0 41050382#1 41050382#2 41050382#3 41050371 41050375#0 41050375#1 41050375#2 41050375#3 41050375#6 41050375#7 41050375#8 41050375#9 41050375#10 26222421#0 26222421#1 240561421#0 240561458#1 679781617 23979554 225006793#0 225006793#1 679781619 23979551#0 23979551#2 23979725 124416783#0 124416783#1 124416781#0 124416781#1 101371626#0 101371626#1 101371626#3 101371626#4 190904362#1 190904362#3 190904362#5 190904363 26209972 104494836#0 104494836#1 104494836#2 104494836#3 26209973#1 -179966411#2 -179966411#1 -179966411#0 -179631747 -179631748 179631758#4 179631750#0 179631750#1 179631751 -179631754#1 179631755#0 179631755#1 179631755#2 -178503651#5 -178503651#4 -178503651#3 -178503651#2 -178503651#1 -178503651#0 -34160113#18 -34160113#17 -34160113#15 -34160113#14 -34160113#13 -34160113#12 -34160113#10 -34160113#9 -34160113#8 -34160113#7 -34160113#6 105592740#1 105592740#2 105592740#3 105592740#4 105592740#5 105592740#6 105592740#7 306418874#0 306418874#1 306418874#2 306419995#0"/>
    </vehicle>
    <vehicle id="veh15" type="veh_passenger" depart="10.29" departLane="best" departSpeed="max">
        <route edges="124416773#0 124416773#1 124416773#2 124416773#3 146203660#0 146203660#1 128894638#0 128894638#1 288887619 37214772#2 37214772#3 172009563#0 172009563#1 128894641 128894642 240612228 105014788 -645561019#1 -645561019#0 -124416766 -29074526#3 -29074526#2 -29074526#1 -29074526#0 65547495#0 65547495#1 65547495#2 65547495#3 65547495#4 34315028 508611306 -104709794#3 -104709794#2 -104709794#1 E20 104709807#0 34750425#2 34750425#4 34750425#5 34750408#1 34750408#2 902040674#1 23554748 26135695#0 26135695#1 902040676#0 -240561442#3 85131429"/>
    </vehicle>
    <vehicle id="veh16" type="veh_passenger" depart="10.97" departLane="best" departSpeed="max">
        <route edges="-43406170#1 -43406170#0 -527411713#0 -182685722#1 -182685722#0 -309719296#6 -309719296#5 -309719296#4 -309719296#3 -309719296#2 -309719296#1 -309719296#0 37214772#1 37214772#2 37214772#3 172009563#0 172009563#1 128894641 128894642 240612228 240612225 -240612227 240612226 240612224 26175074 240545267 127435985 26175086 127435983 65547491 26205508 26205495 321447537 240545272 286110847#1 240545264 37335809 240545259 23979548#0 240545277 151580852#0 151580852#1 -682841359 -384041757#1 -384041757#0 25945947#0 25945947#1 190486437#0"/>
    </vehicle>
    <vehicle id="veh17" type="veh_passenger" depart="11.66" departLane="best">
        <route edges="34160113#1 34160113#2 34160113#3 34160113#4 34160113#6 34160113#7 34160113#8 34160113#9 34160113#10 34160113#11 34160113#13 34160113#14 34160113#15 34160113#17 34160113#18 178503651#0 178503651#1 178503651#2 178503651#3 178503651#4 178503651#5 177186235#0 177186235#1 443002920 179631754#1 179631746 179631749 179631758#2 179631758#3 179631748 179631747 179966411#0 179966411#1 179966411#2 26209973#2 26209973#3 -321447540#1 -321447540#0 -126812153 -321447538 -51678464 51678465 26205508 26205495 321447537 240545272 286110847#1 240545264 37335810#0 37335810#1 240545266 240545260 240545265 240545274 26203167 321421860 233791123 321421855#0 321421855#1 541887713 67332190 233827759#0 233827759#1 233827759#2 233832326 67332191#0 -101374530#4 -101374530#3 251488305"/>
    </vehicle>
    <vehicle id="veh18" type="veh_passenger" depart="12.34" departLane="best">
        <route edges="37334675#1 37334675#2 37334675#3 37334675#4 37334675#5 37334675#6 -37334675#0 -105592740#7 -105592740#6 -105592740#5 -105592740#4 -105592740#3 -105592740#2 -105592740#1 34160113#6 34160113#7 34160113#8 34160113#9 34160113#10 34160113#11 34160113#13 34160113#14 34160113#15 34160113#17 34160113#18 178503651#0 178503651#1 178503651#2 178503651#3 178503651#4 178503651#5 177186235#0 177186235#1 443002920 179631754#1 179631746 179631749 179631758#2 179631758#3 179631748 179631747 179966411#0 179966411#1 179966411#2 26209973#2 26209973#3 -321447540#1 -321447540#0 -126812153 -321447538 -51678464 51678465 26205508 26205495 321447537 23772567 23381452#2 286130631#0 286130631#1 512766532#0 512766532#1 512766532#2 151702608#1 286130639#0 286130639#1 286130639#2 655129457 321032853#0 321032859#0 321032859#1 321032865#0 321032865#1 25805430#0 25805430#1 159819718 248645893 248645892 233824703#0 233824703#1"/>
    </vehicle>
    <vehicle id="veh19" type="veh_passenger" depart="13.03" departLane="best">
        <route edges="25796743#9 25946023#0 25946023#1 -25796751#0 25796749#0 25796749#1 -286130640 321032846#1 321032835 321032848 240545255#0 37335807#1 240545273#0 240545269 26205496 26205509 -127435983 -26175086 -26175085 -240545267 -26175079 -240612224 -240612226 240612227 -240612225 -240612228 -128894642 -128894641 -172009563#1 -172009563#0 37214772#4 37214772#1 37214772#2 144784599#0 144784599#1 144784599#2 144784599#3 68030120 68030121 -68030121 -68030120 -144784599#3 -144784599#2"/>
    </vehicle>
    <vehicle id="veh20" type="veh_passenger" depart="13.72" departLane="best">
        <route edges="-266888337#2 -266888337#1 -266888337#0 -128898030#2 -128898030#1 34750425#2 34750425#4 34750425#5 34750408#1 34750408#2 902040674#1 23554748 26135695#0 26135695#1 902040676#0 902042032#0 902042032#1 902042032#2 127563884#0 127563884#2 127435997 -304378755 -240426516 -184630310 -30610465#1 -30610465#0 -157537321#2 -157537321#1 -157537321#0 -41890716#3 -41890716#2 -41890716#1"/>
    </vehicle>
    <vehicle id="veh21" type="veh_passenger" depart="14.40" departLane="best">
        <route edges="-157535172 -218965108#1 -218965108#0 -157535160 902040676#0 -240561442#3 -240561442#1 -240561442#0 65526296#0 240561441#1 240561441#2 240561439 224479256#0 -240561421#0 -26222421#1 -26222421#0 -41050375#10 -41050375#9 -41050375#8 -41050375#7 -41050375#6 -41050375#3 -41050375#2 -41050375#1 -41050375#0 101368429 23841245#0 23841245#1 321047100 321047096 159989038 59595669 321047086 321047093 321047088 193769369 193769371 321047095 193769373 -321047081 -321047095 -193769371 -193769369 -321047088"/>
    </vehicle>
    <vehicle id="veh22" type="veh_passenger" depart="15.09" departLane="best">
        <route edges="-160011978#3 -160011978#2 -160011978#1 -160011978#0 -184630311#3 -184630311#2 -184630311#1 -184630311#0 -157537322#2 -157537322#1 -157537322#0 30610465#0 30610465#1 184630310 240426516 304378755 -127435997 -127563884#2 -127563884#0 -902042032#2 -902042032#1 -902042032#0 -902040676#1 -26135695#1 -26135695#0 902040675 902040674#0 -34750408#2 -34750408#1 -34750425#5 -34750425#4 -34750425#3 -104709807#1 -244486738#0 -E21 -104709800#3 -104709800#2 -104709800#1 -244486735#3 -244486735#2 -244486735#0 190904368#0 190904368#1 190904362#3 190904362#5 190904363 26209972 104494836#0 104494836#1 104494836#2 104494836#3 26209973#1 -179966411#2 -179966411#1 -179966411#0 -179631747 -179631748 179631758#4 179631750#0 179631750#1 179631751 -179631754#1 179631755#0 179631755#1 179631755#2 -178503651#5 -178503651#4 -178503651#3 -178503651#2 -178503651#1 -178503651#0 -34160113#18 -34160113#17 -34160113#15 -34160113#14 -34160113#13 -34160113#12 -34160113#10 -34160113#9 -34160113#8 -34160113#7 -34160113#6 105592740#1 105592740#2 105592740#3 105592740#4 105592740#5 105592740#6 105592740#7 37334675#0 -37334675#6 -37334675#5 -37334675#4 -37334675#3 -37334675#2 -37334675#1 -37334675#0"/>
    </vehicle>
    <vehicle id="veh23" type="veh_passenger" depart="15.77" departLane="best">
        <route edges="184405824#0 184405824#1 133567553 -133567553 -184405824#1 -184405824#0 -133567552#0 991190913#5 -462191391#1 -462191391#0 321022076#0 321022076#1 321022076#2 321022076#3 -462191392 -244477224 244477172#0 244477225#0 244477225#1 970701032 541547520 606803222#0 606803222#1 399182818#0 399182818#1 693049760#0 693049760#1 989067928 72499493 -72502476#1 -72502476#0 -72502412#1 -72502412#0"/>
    </vehicle>
    <vehicle id="veh24" type="veh_passenger" depart="16.46" departLane="best">
        <route edges="-30610463#2 -30610463#1 -30610463#0 -157539096#2 -157539096#1 26013133#0 157539102#0 26222421#0 26222421#1 240561421#0 240561458#1 679781617 23979554 225006793#0 225006793#1 971255571 240561452 23979061 23554716#0 102344318 256186558#0 256186558#1 256186559#0 33140246 321032828 321032833 321032830 37335810#0 37335810#1 240545266 240545260 240545265 240545274 26203167 321421860 233791123 321421855#0 321421855#1 541887713 67332190 233827759#0 233827759#1 233827759#2 233832326 67332191#0 67332191#1 67332191#2 67332191#3 66758074#1 66758074#2"/>
    </vehicle>
    <vehicle id="veh25" type="veh_passenger" depart="17.14" departLane="best">
        <route edges="204019257 321047078#0 321047078#1 321047062#0 321047062#1 321047062#2 -101368444 -34750804 41050382#0 41050382#1 41050382#2 41050382#3 41050371 101368453#1 -101368446#1 -101368446#0 -35003540#1 -41050382#1 -41050382#0 34750804 101368444 321047071 -321047062#1 -321047062#0 -321047078#1 -321047078#0 -204019257 -321047080 -159190098 159190099 33140246 321032828 321032833 321032830 240545253#1 321032855 655129457 321032853#0 248645890 98504017#0 244477223#0 244477223#1 146701420 970701031 261919660 261919661#0 244477225#0 244477225#1 970701032 541547520 606803222#0 606803222#1 399182818#0 399182818#1 693049760#0 693049760#1 989067928 72499493 242653666 321022100 242653667#0 242653667#1 241913077#1 241913077#2"/>
    </vehicle>
    <vehicle id="veh26" type="veh_passenger" depart="17.83" departLane="best">
        <route edges="-241913077#1 -241913077#0 -242653667#0 -321022100 -242653666 -72499493 -98438503 -693049760#1 -693049760#0 693049758#0 -531081828 -606803222#0 -541547520 -970701032 286127297 970701033#0 286110833 244477221#0 98462787 248645889#0 248645889#2 146701421 321032838 321032846#1 321032835 321032848 240545255#0 37335807#1 240545273#0 240545269 26205496 26209969 321447539 51678656 104494836#3 26209973#1 -179966411#2 -179966411#1 -179966411#0 -179631747 -179631748 179631758#4 179631750#0 179631750#1 179631751 -179631754#1 179631755#0 179631755#1 179631755#2 -178503651#5 -178503651#4 -178503651#3 -178503651#2 -178503651#1 -178503651#0 -34160113#18 -34160113#17 -34160113#15 -34160113#14 -34160113#13 -34160113#12 -34160113#10 -34160113#9 -34160113#8 -34160113#7 -34160113#6 105592740#1 105592740#2 105592740#3 105592740#4 105592740#5 105592740#6 105592740#7 306418874#0"/>
    </vehicle>
    <vehicle id="veh27" type="veh_passenger" depart="18.52" departLane="best">
        <route edges="-23688920#7 207516647 -207516647 23688920#7 23696275#6 23696275#7 23696275#8 23696275#9 23696275#10 23696275#11 23696275#12 23696275#13 23696275#14 23696275#15 23696275#16 23696275#17 23696275#18 23696275#20 23696275#22 23696275#23 34750408#1 34750408#2 902040674#1 23554748 26135695#0 26135695#1 902040676#0 -240561442#3 -240561442#1 -240561442#0 65526296#0 240561441#1 240561441#2 240561439 E2 679781617 23979554 225006793#0 225006793#1 971255571 240561452 23979061 23554716#0 102344318 256186558#0 256186558#1 256186559#0 33140246 321032828 321032833 321032830 240545253#1 321032855 655129457 321032853#0 248645890 98504017#0 244477223#0 244477223#1 146701420 970701031 261919660 261919661#0 33141498#0 33141498#1 244477224 462191392 679568117 462191391#0 462191391#1 991190913#2 -159511090#1 -159511090#0 -85314635#4 -85314640"/>
    </vehicle>
    <vehicle id="veh28" type="veh_passenger" depart="19.20" departLane="best">
        <route edges="902040672#0 902040672#1 104847812 104962128#1 317826057#0 -240561442#1 -240561442#0 65526296#0 240561441#1 240561441#2 240561439 E2 679781617 23979554 225006793#0 225006793#1 971255571 240561452 23979061 23554716#0 102344318 256186558#0 256186558#1 256186559#0 33140246 321032828 321032833 321032830 37335810#0 37335810#1 159159345 233824688 151614067 321426008 680168807 200313022#0 200313022#1 200313022#2 200313022#3 200313022#4 200313022#8 200313022#9 200313022#11 25805453#0 25805453#1 25805456#4 25805452#6 25805452#7"/>
    </vehicle>
    <vehicle id="veh29" type="veh_passenger" depart="19.89" departLane="best">
        <route edges="131791165#5 -28190428#3 -28190428#2 -28190428#0 34160113#14 34160113#15 34160113#17 34160113#18 178503651#0 178503651#1 178503651#2 178503651#3 178503651#4 178503651#5 177186235#0 177186235#1 443002920 179631754#1 179631746 179631749 179631758#2 179631758#3 179631748 179631747 179966411#0 179966411#1 179966411#2 26209973#2 26209973#3 26209973#4 26175084#0 26175084#1 127435986#2 -26175083 190904366#0 190904366#2 244486735#0 244486735#1 244486735#3 104709800#0 104709800#2 104709800#3 E21 244486738#0 104709807#0 34750425#2 34750425#4 34750425#5 34750408#1 34750408#2 902040674#1 23554748 26135695#0 26135695#1 902040676#0 902042032#0 902042032#1 902042032#2 127563884#0 127563884#2 127435997 -304378755 -240426516 -184630310 -30610465#1 -30610465#0 157537322#0 41890718 274995667#0 274995667#1"/>
    </vehicle>
    <vehicle id="veh30" type="veh_passenger" depart="20.57" departLane="best">
        <route edges="35980403#4 35980403#5 35980403#6 -35980403#6 -35980403#5 -35980403#4 -35980403#3 -35980403#2 -35980403#1 34160113#15 34160113#17 34160113#18 178503651#0 178503651#1 178503651#2 178503651#3 178503651#4 178503651#5 177186235#0 177186235#1 443002920 179631754#1 179631746 179631749 179631758#2 179631758#3 179631748 179631747 179966411#0 179966411#1 179966411#2 26209973#2 26209973#3 -321447540#1 -321447540#0 -126812153 -321447538 -51678464 51678465 26205508 26205495 321447537 240545272 286110847#1 240545264 37335810#0 37335810#1 240545266 240545260 240545265 240545274 26203167 321421860 233791123 321421855#0 321421855#1 541887713 67332190 233827759#0 233827759#1 233827759#2 233832326 67332191#0 67332191#1 67332191#2 67332191#3 67332191#6 321421865#0 321421865#1 321421862#1 321421862#2 321421862#3 321421862#4 321421862#5 321421862#6 341872603#0 341872603#1"/>
    </vehicle>
    <vehicle id="veh31" type="veh_passenger" depart="21.26" departLane="best" departSpeed="max">
        <route edges="-266888337#4 -266888337#3 -266888337#2 -266888337#1 -266888337#0 -128898030#2 -128898030#1 34750425#2 34750425#4 34750425#5 34750408#1 34750408#2 902040674#1 23554748 26135695#0 26135695#1 157535160 157535157#0 157535157#1 157535157#2 157535157#3 157535157#4 157535157#5 61454714#0 61454714#1 61454714#2 127435991#0 127435991#1 -127435989#1"/>
    </vehicle>
    <vehicle id="veh32" type="veh_passenger" depart="21.95" departLane="best">
        <route edges="-34750804 41050382#0 41050382#1 41050382#2 41050382#3 41050371 41050375#0 41050375#1 41050375#2 41050375#3 41050375#6 41050375#7 41050375#8 41050375#9 41050375#10 26222421#0 26222421#1 240561421#0 240561458#1 679781617 23979554 225006793#0 225006793#1 679781619 23979551#0 23979551#2 23979725 124416783#0 124416783#1 124416781#0 124416781#1 101371626#0 101371626#1 101371626#3 101371626#4 190904362#1 190904362#3 190904362#5 190904363 26209972 104494836#0 104494836#1 104494836#2 104494836#3 26209973#1 -179966411#2 -179966411#1 -179966411#0 -179631747 -179631748 179631758#4 179631750#0 179631750#1 179631751 -179631754#1 179631755#0 179631755#1 179631755#2 -178503651#5 -178503651#4 -178503651#3 -178503651#2 -178503651#1 -178503651#0 -34160113#18 -34160113#17 -34160113#15 -34160113#14 -34160113#13 -34160113#12 -34160113#10 35980404#1 35980404#2 37033887#0 37033887#1 37033887#2 37033887#4 -37033887#4 -37033887#2 -37033887#1"/>
    </vehicle>
    <vehicle id="veh33" type="veh_passenger" depart="22.63" departLane="best">
        <route edges="-26013134#3 -26013134#2 -26013134#1 -26013134#0 682841361#0 682841361#1 682841361#2 25945947#0 25945947#1 25945948#0 25945948#1 25945948#2 682841356 102344318 256186558#0 256186558#1 256186559#0 33140246 321032828 321032833 321032830 37335810#0 37335810#1 240545266 240545260 240545265 240545274 26203167 321421860 233791123 321421855#0 321421855#1 541887713 67332190 233827759#0 233827759#1 233827759#2 233832326 67332191#0 67332191#1 67332191#2 67332191#3 67332191#6 321421865#0 321421865#1 67332186 321421861#0 321421861#1 321421861#2 321421861#3 321421861#4 321421861#7 321421861#8 321421861#9 321421861#10 341872602 67332189#0 67332189#1 67332189#2 67332189#3"/>
    </vehicle>
    <vehicle id="veh34" type="veh_passenger" depart="23.32" departLane="best">
        <route edges="41890715#1 183905932#0 183905932#1 30610465#1 184630310 240426516 304378755 -127435997 -127563884#2 -127563884#0 -902042032#2 -902042032#1 -902042032#0 -240561442#3 -240561442#1 -240561442#0 65526296#0 240561441#1 240561441#2 240561439 E2 679781617 23979554 225006793#0 225006793#1 971255571 240561452 23979061 23554716#0 102344318 256186558#0 256186558#1 256186559#0 33140246 321032828 321032833 321032830 240545253#1 151702609#0 174272530#0 -512766532#2 -512766532#1"/>
    </vehicle>
    <vehicle id="veh35" type="veh_passenger" depart="24.00" departLane="best" departSpeed="max">
        <route edges="233394032#0 233394032#1 233394032#2 127529157#0 127529157#1 127529157#2 127529157#4 23696275#0 23696275#1 23696275#3 23696275#4 23696275#5 23696275#6 23696275#7 23696275#8 23696275#9 23696275#10 23696275#11 23696275#12 23696275#13 23696275#14 23696275#15 23696275#16 23696275#17 23696275#18 23696275#20 23696275#22 23696275#23 34750408#1 34750408#2 902040674#1 23554748 26135695#0 26135695#1 902040676#0 -240561442#3 -240561442#1 -240561442#0 65526296#0 240561441#1 240561441#2 240561439 224479256#0 -240561421#0 -26222421#1 -26222421#0 -41050375#10 -41050375#9 -41050375#8 -41050375#7 -41050375#6 -41050375#3 -41050375#2 -41050375#1 -41050375#0 101368453#1 101368453#2"/>
    </vehicle>
    <vehicle id="veh37" type="veh_passenger" depart="25.37" departLane="best">
        <route edges="-30610461#6 -30610461#5 -30610461#4 -30610461#3 -30610461#2 -30610461#1 -30610461#0 -157539096#1 26013133#0 157539102#0 26222421#0 26222421#1 240561421#0 240561458#1 679781617 23979554 225006793#0 225006793#1 679781619 23979551#0 23979551#2 23979725 124416783#0 124416783#1 124416781#0 124416781#1 101371626#0 101371626#1 101371626#3 101371626#4 190904362#1 190904362#3 190904362#5 190904363 26209972 182210575#0 182210575#1 104494833 -240545267 -26175079 -240612224 182689757 128894645 128894648 -326037423#1"/>
    </vehicle>
    <vehicle id="veh38" type="veh_passenger" depart="26.06" departLane="best">
        <route edges="146701421 321032838 321032846#1 321032835 321032848 240545255#0 37335807#1 240545273#0 240545269 26205496 26209969 321447539 51678656 104494836#3 26209973#1 -179966411#2 -179966411#1 -179966411#0 -179631747 -179631748 179631758#4 179631750#0 179631750#1 179631751 -179631754#1 179631755#0 179631755#1 179631755#2 -178503651#5 -178503651#4 -178503651#3 -178503651#2 -178503651#1 -178503651#0 -34160113#18 -34160113#17 -34160113#15 -34160113#14 -34160113#13 -34160113#12 -34160113#10 35980404#1 35980404#2 35980404#3 35980404#4 35980404#5 35980404#6 35980404#7 -35980404#7 -35980404#6 -35980404#5"/>
    </vehicle>
    <vehicle id="veh39" type="veh_passenger" depart="26.75" departLane="best">