<?xml version="1.0" encoding="UTF-8"?>
<!-- generated on 2021-12-20 16:18:56.823025 by netdiff.py v1_10_0+0000-83496a5972
  options: ../osm/osm.net.xml prt_test.net.xml diff
-->
<connections version="1.9" xmlns:xsi="http://www.w3.org/2001/XMLSchema-instance" xsi:noNamespaceSchemaLocation="http://sumo.dlr.de/xsd/connections_file.xsd">
    <!-- Deleted Elements -->
    <delete from="-100622984#0" fromLane="0" to="-127529207#1" toLane="0"/>
    <delete from="-100622984#0" fromLane="0" to="127529207#2" toLane="1"/>
    <delete from="-100622984#0" fromLane="0" to="100622984#0" toLane="0"/>
    <delete from="-100622984#1" fromLane="0" to="-100622984#0" toLane="0"/>
    <delete from="-100622984#1" fromLane="0" to="-449025698" toLane="0"/>
    <delete from="-100622984#1" fromLane="0" to="100622984#1" toLane="0"/>
    <delete from="-100655979" fromLane="0" to="-159818666#0" toLane="0"/>
    <delete from="-100655979" fromLane="0" to="159818666#1" toLane="0"/>
    <delete from="-100655979" fromLane="0" to="100655979" toLane="0"/>
    <delete from="-100655982" fromLane="0" to="-25805448#1" toLane="0"/>
    <delete from="-100655982" fromLane="0" to="25805448#2" toLane="0"/>
    <delete from="-100655982" fromLane="0" to="100655982" toLane="0"/>
    <delete from="-100655989#0" fromLane="0" to="151585862#1" toLane="0"/>
    <delete from="-100655989#0" fromLane="0" to="-151585862#0" toLane="0"/>
    <delete from="-100655989#0" fromLane="0" to="100655989#0" toLane="0"/>
    <delete from="-100655989#1" fromLane="0" to="-100655989#0" toLane="0"/>
    <delete from="-100655989#1" fromLane="0" to="100655989#1" toLane="0"/>
    <delete from="-100655990" fromLane="0" to="100655990" toLane="0"/>
    <delete from="-101368427" fromLane="0" to="159989038" toLane="0"/>
    <delete from="-101368427" fromLane="1" to="159989038" toLane="1"/>
    <delete from="-101368427" fromLane="1" to="101368427" toLane="0"/>
    <delete from="-101368435" fromLane="0" to="101368435" toLane="0"/>
    <delete from="-101368444" fromLane="0" to="-101368427" toLane="0"/>
    <delete from="-101368444" fromLane="0" to="-101368427" toLane="1"/>
    <delete from="-101368444" fromLane="0" to="-34750804" toLane="0"/>
    <delete from="-101368444" fromLane="0" to="101368444" toLane="1"/>
    <delete from="-101368446#0" fromLane="0" to="-35003540#1" toLane="0"/>
    <delete from="-101368446#0" fromLane="0" to="35003540#2" toLane="0"/>
    <delete from="-101368446#0" fromLane="0" to="101368446#0" toLane="0"/>
    <delete from="-101368446#1" fromLane="0" to="-101368446#0" toLane="0"/>
    <delete from="-101368446#1" fromLane="0" to="-101368435" toLane="0"/>
    <delete from="-101368446#1" fromLane="0" to="101368446#1" toLane="0"/>
    <delete from="-101368453#1" fromLane="0" to="128899606#1" toLane="0"/>
    <delete from="-101368453#1" fromLane="0" to="41050375#0" toLane="0"/>
    <delete from="-101368453#1" fromLane="0" to="101368429" toLane="1"/>
    <delete from="-101368453#1" fromLane="0" to="101368453#1" toLane="0"/>
    <delete from="-101368453#2" fromLane="0" to="-101368453#1" toLane="0"/>
    <delete from="-101368453#2" fromLane="0" to="-101368446#1" toLane="0"/>
    <delete from="-101368453#2" fromLane="0" to="101368453#2" toLane="0"/>
    <delete from="-101371626#0" fromLane="0" to="23979555#0" toLane="0"/>
    <delete from="-101371626#1" fromLane="0" to="-443014117#7" toLane="0"/>
    <delete from="-101371626#1" fromLane="0" to="-25945928#3" toLane="0"/>
    <delete from="-101371626#1" fromLane="0" to="443014117#8" toLane="0"/>
    <delete from="-101371626#1" fromLane="0" to="-101371626#0" toLane="0"/>
    <delete from="-101371626#1" fromLane="1" to="-101371626#0" toLane="1"/>
    <delete from="-101371626#1" fromLane="1" to="101371626#1" toLane="1"/>
    <delete from="-101371626#3" fromLane="0" to="-443014117#6" toLane="0"/>
    <delete from="-101371626#3" fromLane="0" to="443014117#7" toLane="0"/>
    <delete from="-101371626#3" fromLane="0" to="-101371626#1" toLane="0"/>
    <delete from="-101371626#3" fromLane="0" to="-197638009#1" toLane="0"/>
    <delete from="-101371626#3" fromLane="1" to="-85131428#1" toLane="0"/>
    <delete from="-101371626#3" fromLane="1" to="197638009#3" toLane="0"/>
    <delete from="-101371626#3" fromLane="1" to="101371626#3" toLane="1"/>
    <delete from="-101371626#4" fromLane="0" to="-443014117#5" toLane="0"/>
    <delete from="-101371626#4" fromLane="0" to="-158179941#0" toLane="0"/>
    <delete from="-101371626#4" fromLane="0" to="443014117#6" toLane="0"/>
    <delete from="-101371626#4" fromLane="0" to="-101371626#3" toLane="0"/>
    <delete from="-101371626#4" fromLane="1" to="-101371626#3" toLane="1"/>
    <delete from="-101371626#4" fromLane="1" to="101371626#4" toLane="1"/>
    <delete from="-101374520" fromLane="0" to="-175422505" toLane="0"/>
    <delete from="-101374520" fromLane="0" to="101374520" toLane="0"/>
    <delete from="-101374521#0" fromLane="0" to="321421861#3" toLane="0"/>
    <delete from="-101374521#0" fromLane="0" to="-321421861#2" toLane="0"/>
    <delete from="-101374521#0" fromLane="0" to="101374521#0" toLane="0"/>
    <delete from="-101374521#2" fromLane="0" to="-175418945" toLane="0"/>
    <delete from="-101374521#2" fromLane="0" to="-101374521#0" toLane="0"/>
    <delete from="-101374521#2" fromLane="0" to="101374525#0" toLane="0"/>
    <delete from="-101374521#2" fromLane="0" to="101374521#2" toLane="0"/>
    <delete from="-101374522#0" fromLane="0" to="-175070743#2" toLane="0"/>
    <delete from="-101374522#0" fromLane="0" to="101374522#0" toLane="0"/>
    <delete from="-101374522#1" fromLane="0" to="-101374522#0" toLane="0"/>
    <delete from="-101374522#1" fromLane="0" to="189043325" toLane="0"/>
    <delete from="-101374522#1" fromLane="0" to="101374522#1" toLane="0"/>
    <delete from="-101374523#0" fromLane="0" to="-321421861#1" toLane="0"/>
    <delete from="-101374523#0" fromLane="0" to="321421861#2" toLane="0"/>
    <delete from="-101374523#0" fromLane="0" to="101374523#0" toLane="0"/>
    <delete from="-101374523#2" fromLane="0" to="-101374523#0" toLane="0"/>
    <delete from="-101374523#2" fromLane="0" to="-175418942" toLane="0"/>
    <delete from="-101374523#2" fromLane="0" to="175418948#0" toLane="0"/>
    <delete from="-101374523#2" fromLane="0" to="101374523#2" toLane="0"/>
    <delete from="-101374523#3" fromLane="0" to="-101374523#2" toLane="0"/>
    <delete from="-101374523#3" fromLane="0" to="-159850124#5" toLane="0"/>
    <delete from="-101374523#3" fromLane="0" to="101374523#3" toLane="0"/>
    <delete from="-101374524#0" fromLane="0" to="66758076" toLane="0"/>
    <delete from="-101374524#0" fromLane="0" to="-33055444#2" toLane="0"/>
    <delete from="-101374524#0" fromLane="0" to="101374524#0" toLane="0"/>
    <delete from="-101374524#1" fromLane="0" to="-101374520" toLane="0"/>
    <delete from="-101374524#1" fromLane="0" to="-101374524#0" toLane="0"/>
    <delete from="-101374524#1" fromLane="0" to="101374524#1" toLane="0"/>
    <delete from="-101374525#0" fromLane="0" to="101374521#2" toLane="0"/>
    <delete from="-101374525#0" fromLane="0" to="-175418945" toLane="0"/>
    <delete from="-101374525#0" fromLane="0" to="-101374521#0" toLane="0"/>
    <delete from="-101374525#0" fromLane="0" to="101374525#0" toLane="0"/>
    <delete from="-101374525#1" fromLane="0" to="175418946" toLane="0"/>
    <delete from="-101374525#1" fromLane="0" to="-101374525#0" toLane="0"/>
    <delete from="-101374525#1" fromLane="0" to="101374525#1" toLane="0"/>
    <delete from="-101374526" fromLane="0" to="101374526" toLane="0"/>
    <delete from="-101374530#1" fromLane="0" to="233802133#2" toLane="0"/>
    <delete from="-101374530#1" fromLane="0" to="-321421862#3" toLane="0"/>
    <delete from="-101374530#1" fromLane="0" to="321421862#4" toLane="0"/>
    <delete from="-101374530#1" fromLane="0" to="-233802133#1" toLane="0"/>
    <delete from="-101374530#1" fromLane="0" to="101374530#1" toLane="0"/>
    <delete from="-101374530#2" fromLane="0" to="101374531#0" toLane="0"/>
    <delete from="-101374530#2" fromLane="0" to="-101374530#1" toLane="0"/>
    <delete from="-101374530#2" fromLane="0" to="101374530#2" toLane="0"/>
    <delete from="-101374530#3" fromLane="0" to="-101374530#2" toLane="0"/>
    <delete from="-101374530#3" fromLane="0" to="251488305" toLane="0"/>
    <delete from="-101374530#3" fromLane="0" to="101374530#3" toLane="0"/>
    <delete from="-101374530#4" fromLane="0" to="-233802121#1" toLane="0"/>
    <delete from="-101374530#4" fromLane="0" to="-101374530#3" toLane="0"/>
    <delete from="-101374530#4" fromLane="0" to="233802121#2" toLane="0"/>
    <delete from="-101374530#4" fromLane="0" to="101374530#4" toLane="0"/>
    <delete from="-101374531#0" fromLane="0" to="-101374530#1" toLane="0"/>
    <delete from="-101374531#0" fromLane="0" to="101374530#2" toLane="0"/>
    <delete from="-101374531#0" fromLane="0" to="101374531#0" toLane="0"/>
    <delete from="-101374531#1" fromLane="0" to="-101374531#0" toLane="0"/>
    <delete from="-101374531#1" fromLane="0" to="-101374535#1" toLane="0"/>
    <delete from="-101374531#1" fromLane="0" to="101374531#1" toLane="0"/>
    <delete from="-101374532" fromLane="0" to="101374532" toLane="0"/>
    <delete from="-101374533#0" fromLane="0" to="101374533#0" toLane="0"/>
    <delete from="-101374533#1" fromLane="0" to="115882209#2" toLane="0"/>
    <delete from="-101374533#1" fromLane="0" to="-101374533#0" toLane="0"/>
    <delete from="-101374533#1" fromLane="0" to="-115882209#1" toLane="0"/>
    <delete from="-101374533#1" fromLane="0" to="101374533#1" toLane="0"/>
    <delete from="-101374533#2" fromLane="0" to="136061929#3" toLane="0"/>
    <delete from="-101374533#2" fromLane="0" to="-101374533#1" toLane="0"/>
    <delete from="-101374533#2" fromLane="0" to="-136061929#2" toLane="0"/>
    <delete from="-101374533#2" fromLane="0" to="101374533#2" toLane="0"/>
    <delete from="-101374534#0" fromLane="0" to="101374534#0" toLane="0"/>
    <delete from="-101374534#1" fromLane="0" to="-101374534#0" toLane="0"/>
    <delete from="-101374534#1" fromLane="0" to="175418951" toLane="0"/>
    <delete from="-101374534#1" fromLane="0" to="101374534#1" toLane="0"/>
    <delete from="-101374535#1" fromLane="0" to="233802121#1" toLane="0"/>
    <delete from="-101374535#1" fromLane="0" to="-67332191#4" toLane="0"/>
    <delete from="-101374535#1" fromLane="0" to="-233832346#2" toLane="0"/>
    <delete from="-101374535#1" fromLane="0" to="66758074#1" toLane="0"/>
    <delete from="-101374535#1" fromLane="0" to="233832346#3" toLane="0"/>
    <delete from="-101374535#1" fromLane="0" to="67332191#6" toLane="0"/>
    <delete from="-101374535#1" fromLane="0" to="-233802121#0" toLane="0"/>
    <delete from="-101374535#1" fromLane="0" to="101374535#1" toLane="0"/>
    <delete from="-101374537" fromLane="0" to="101374537" toLane="0"/>
    <delete from="-101374538#1" fromLane="0" to="319555423#1" toLane="0"/>
    <delete from="-101374538#1" fromLane="0" to="-318085257#2" toLane="0"/>
    <delete from="-101374538#1" fromLane="0" to="318085257#3" toLane="0"/>
    <delete from="-101374538#1" fromLane="0" to="-319555423#0" toLane="0"/>
    <delete from="-101374538#1" fromLane="0" to="101374538#1" toLane="0"/>
    <delete from="-101374540#0" fromLane="0" to="760113835" toLane="0"/>
    <delete from="-101374540#0" fromLane="0" to="-115849594#1" toLane="0"/>
    <delete from="-101374540#0" fromLane="0" to="101374540#0" toLane="0"/>
    <delete from="-101374540#1" fromLane="0" to="-136061929#0" toLane="0"/>
    <delete from="-101374540#1" fromLane="0" to="-101374540#0" toLane="0"/>
    <delete from="-101374540#1" fromLane="0" to="136061929#1" toLane="0"/>
    <delete from="-101374540#1" fromLane="0" to="101374540#1" toLane="0"/>
    <delete from="-101390606#0" fromLane="0" to="146203667" toLane="0"/>
    <delete from="-101390606#0" fromLane="0" to="146203671#0" toLane="0"/>
    <delete from="-101390606#0" fromLane="0" to="-48447025#4" toLane="0"/>
    <delete from="-101390606#0" fromLane="0" to="101390606#0" toLane="0"/>
    <delete from="-101390606#1" fromLane="0" to="-128888463#0" toLane="0"/>
    <delete from="-101390606#1" fromLane="0" to="-101390606#0" toLane="0"/>
    <delete from="-101390606#1" fromLane="0" to="128888463#1" toLane="0"/>
    <delete from="-101390606#1" fromLane="0" to="101390606#1" toLane="0"/>
    <delete from="-101390606#2" fromLane="0" to="-101390606#1" toLane="0"/>
    <delete from="-101390606#2" fromLane="0" to="101390606#2" toLane="0"/>
    <delete from="-101390606#3" fromLane="0" to="146203672#0" toLane="0"/>
    <delete from="-101390606#3" fromLane="0" to="-101390606#2" toLane="0"/>
    <delete from="-101390606#3" fromLane="0" to="-101513321" toLane="0"/>
    <delete from="-101390606#3" fromLane="0" to="101390606#3" toLane="0"/>
    <delete from="-101513321" fromLane="0" to="48447025#1" toLane="0"/>
    <delete from="-101513321" fromLane="0" to="-48447025#0" toLane="0"/>
    <delete from="-101513321" fromLane="0" to="101513321" toLane="0"/>
    <delete from="-101988386#0" fromLane="0" to="101988403#1" toLane="0"/>
    <delete from="-101988386#0" fromLane="0" to="-101988403#0" toLane="0"/>
    <delete from="-101988386#0" fromLane="0" to="101988386#0" toLane="0"/>
    <delete from="-101988386#1" fromLane="0" to="-101988388" toLane="0"/>
    <delete from="-101988386#1" fromLane="0" to="-101988386#0" toLane="0"/>
    <delete from="-101988386#1" fromLane="0" to="101988386#1" toLane="0"/>
    <delete from="-101988386#2" fromLane="0" to="-101988390" toLane="0"/>
    <delete from="-101988386#2" fromLane="0" to="-101988386#1" toLane="0"/>
    <delete from="-101988386#2" fromLane="0" to="101988386#2" toLane="0"/>
    <delete from="-101988388" fromLane="0" to="101988403#2" toLane="0"/>
    <delete from="-101988388" fromLane="0" to="-101988403#1" toLane="0"/>
    <delete from="-101988388" fromLane="0" to="101988388" toLane="0"/>
    <delete from="-101988390" fromLane="0" to="101988403#3" toLane="0"/>
    <delete from="-101988390" fromLane="0" to="-101988403#2" toLane="0"/>
    <delete from="-101988390" fromLane="0" to="101988390" toLane="0"/>
    <delete from="-101988403#0" fromLane="0" to="-179776068#0" toLane="0"/>
    <delete from="-101988403#0" fromLane="0" to="179776068#1" toLane="0"/>
    <delete from="-101988403#0" fromLane="0" to="101988403#0" toLane="0"/>
    <delete from="-101988403#1" fromLane="0" to="-101988403#0" toLane="0"/>
    <delete from="-101988403#1" fromLane="0" to="101988386#0" toLane="0"/>
    <delete from="-101988403#1" fromLane="0" to="101988403#1" toLane="0"/>
    <delete from="-101988403#10" fromLane="0" to="-179776094" toLane="0"/>
    <delete from="-101988403#10" fromLane="0" to="-101988403#9" toLane="0"/>
    <delete from="-101988403#10" fromLane="0" to="101988403#10" toLane="0"/>
    <delete from="-101988403#11" fromLane="0" to="179776094" toLane="0"/>
    <delete from="-101988403#11" fromLane="0" to="-101988403#10" toLane="0"/>
    <delete from="-101988403#11" fromLane="0" to="101988403#11" toLane="0"/>
    <delete from="-101988403#12" fromLane="0" to="179776095" toLane="0"/>
    <delete from="-101988403#12" fromLane="0" to="-101988403#11" toLane="0"/>
    <delete from="-101988403#12" fromLane="0" to="101988403#12" toLane="0"/>
    <delete from="-101988403#13" fromLane="0" to="179776100" toLane="0"/>
    <delete from="-101988403#13" fromLane="0" to="-101988403#12" toLane="0"/>
    <delete from="-101988403#13" fromLane="0" to="101988403#13" toLane="0"/>
    <delete from="-101988403#14" fromLane="0" to="179776097" toLane="0"/>
    <delete from="-101988403#14" fromLane="0" to="-101988403#13" toLane="0"/>
    <delete from="-101988403#14" fromLane="0" to="101988403#14" toLane="0"/>
    <delete from="-101988403#15" fromLane="0" to="179776096" toLane="0"/>
    <delete from="-101988403#15" fromLane="0" to="-101988403#14" toLane="0"/>
    <delete from="-101988403#15" fromLane="0" to="101988403#15" toLane="0"/>
    <delete from="-101988403#2" fromLane="0" to="-101988403#1" toLane="0"/>
    <delete from="-101988403#2" fromLane="0" to="101988388" toLane="0"/>
    <delete from="-101988403#2" fromLane="0" to="101988403#2" toLane="0"/>
    <delete from="-101988403#3" fromLane="0" to="-101988403#2" toLane="0"/>
    <delete from="-101988403#3" fromLane="0" to="101988390" toLane="0"/>
    <delete from="-101988403#3" fromLane="0" to="101988403#3" toLane="0"/>
    <delete from="-101988403#5" fromLane="0" to="-101988403#15" toLane="0"/>
    <delete from="-101988403#5" fromLane="0" to="-101988403#3" toLane="0"/>
    <delete from="-101988403#5" fromLane="0" to="-101988386#2" toLane="0"/>
    <delete from="-101988403#5" fromLane="0" to="101988403#5" toLane="0"/>
    <delete from="-101988403#6" fromLane="0" to="-179776096" toLane="0"/>
    <delete from="-101988403#6" fromLane="0" to="-101988403#5" toLane="0"/>
    <delete from="-101988403#6" fromLane="0" to="101988403#6" toLane="0"/>
    <delete from="-101988403#7" fromLane="0" to="-179776097" toLane="0"/>
    <delete from="-101988403#7" fromLane="0" to="-101988403#6" toLane="0"/>
    <delete from="-101988403#7" fromLane="0" to="101988403#7" toLane="0"/>
    <delete from="-101988403#8" fromLane="0" to="-179776100" toLane="0"/>
    <delete from="-101988403#8" fromLane="0" to="-101988403#7" toLane="0"/>
    <delete from="-101988403#8" fromLane="0" to="101988403#8" toLane="0"/>
    <delete from="-101988403#9" fromLane="0" to="-179776095" toLane="0"/>
    <delete from="-101988403#9" fromLane="0" to="-101988403#8" toLane="0"/>
    <delete from="-101988403#9" fromLane="0" to="101988403#9" toLane="0"/>
    <delete from="-102868609" fromLane="0" to="43406176#6" toLane="0"/>
    <delete from="-102868609" fromLane="0" to="-43406176#5" toLane="0"/>
    <delete from="-102868609" fromLane="0" to="102868609" toLane="0"/>
    <delete from="-102868617#0" fromLane="0" to="-526624514" toLane="0"/>
    <delete from="-102868617#0" fromLane="0" to="-527411713#1" toLane="0"/>
    <delete from="-102868617#0" fromLane="0" to="527411713#3" toLane="0"/>
    <delete from="-102868617#0" fromLane="0" to="102868617#0" toLane="0"/>
    <delete from="-102868617#2" fromLane="0" to="-845935815" toLane="0"/>
    <delete from="-102868617#2" fromLane="0" to="-102868617#0" toLane="0"/>
    <delete from="-102868617#2" fromLane="0" to="845935816" toLane="0"/>
    <delete from="-102868617#2" fromLane="0" to="102868617#2" toLane="0"/>
    <delete from="-104494823#0" fromLane="0" to="-512591040#2" toLane="0"/>
    <delete from="-104494823#0" fromLane="0" to="512591040#3" toLane="0"/>
    <delete from="-104494823#0" fromLane="0" to="104494823#0" toLane="0"/>
    <delete from="-104494823#1" fromLane="0" to="-104494823#0" toLane="0"/>
    <delete from="-104494823#1" fromLane="0" to="104494823#1" toLane="0"/>
    <delete from="-104494823#2" fromLane="0" to="-104494839#0" toLane="0"/>
    <delete from="-104494823#2" fromLane="0" to="-104494823#1" toLane="0"/>
    <delete from="-104494823#2" fromLane="0" to="104494839#1" toLane="0"/>
    <delete from="-104494823#2" fromLane="0" to="104494823#2" toLane="0"/>
    <delete from="-104494827" fromLane="0" to="127435986#2" toLane="0"/>
    <delete from="-104494827" fromLane="0" to="-104494840#1" toLane="0"/>
    <delete from="-104494827" fromLane="0" to="-104494823#2" toLane="0"/>
    <delete from="-104494827" fromLane="0" to="182210573" toLane="0"/>
    <delete from="-104494827" fromLane="0" to="104494823#6" toLane="0"/>
    <delete from="-104494834" fromLane="0" to="25945923#0" toLane="0"/>
    <delete from="-104494834" fromLane="0" to="-595999978" toLane="0"/>
    <delete from="-104494834" fromLane="0" to="104494834" toLane="0"/>
    <delete from="-104494837" fromLane="0" to="512362204" toLane="0"/>
    <delete from="-104494837" fromLane="0" to="356469955" toLane="0"/>
    <delete from="-104494837" fromLane="0" to="104494837" toLane="0"/>
    <delete from="-104494839#0" fromLane="0" to="26175084#1" toLane="0"/>
    <delete from="-104494839#0" fromLane="0" to="104494839#0" toLane="0"/>
    <delete from="-104494840#0" fromLane="0" to="110703841#4" toLane="0"/>
    <delete from="-104494840#0" fromLane="0" to="-110703841#2" toLane="0"/>
    <delete from="-104494840#0" fromLane="0" to="104494840#0" toLane="0"/>
    <delete from="-104494840#1" fromLane="0" to="-104494840#0" toLane="0"/>
    <delete from="-104494840#1" fromLane="0" to="104494836#1" toLane="0"/>
    <delete from="-104494840#1" fromLane="0" to="104494840#1" toLane="0"/>
    <delete from="-104494844#0" fromLane="0" to="-110703841#4" toLane="0"/>
    <delete from="-104494844#0" fromLane="0" to="110703841#5" toLane="0"/>
    <delete from="-104494844#1" fromLane="0" to="-104494844#0" toLane="0"/>
    <delete from="-104494844#1" fromLane="0" to="104494844#1" toLane="0"/>
    <delete from="-104494845" fromLane="0" to="104494823#2" toLane="0"/>
    <delete from="-104494845" fromLane="0" to="-104494839#0" toLane="0"/>
    <delete from="-104494845" fromLane="0" to="-104494823#1" toLane="0"/>
    <delete from="-104494845" fromLane="0" to="104494839#1" toLane="0"/>
    <delete from="-104665538" fromLane="0" to="35151586#0" toLane="0"/>
    <delete from="-104665538" fromLane="0" to="104665538" toLane="0"/>
    <delete from="-104665539" fromLane="0" to="-104665538" toLane="0"/>
    <delete from="-104665539" fromLane="0" to="65554345#0" toLane="0"/>
    <delete from="-104665539" fromLane="0" to="104665539" toLane="0"/>
    <delete from="-104668977#0" fromLane="0" to="25945945#1" toLane="0"/>
    <delete from="-104668977#0" fromLane="0" to="104668977#0" toLane="0"/>
    <delete from="-104668977#1" fromLane="0" to="-104668977#0" toLane="0"/>
    <delete from="-104668977#1" fromLane="0" to="85256467#0" toLane="0"/>
    <delete from="-104668977#1" fromLane="0" to="104668977#1" toLane="0"/>
    <delete from="-104709794#0" fromLane="0" to="-28534932#4" toLane="0"/>
    <delete from="-104709794#0" fromLane="0" to="28534932#5" toLane="0"/>
    <delete from="-104709794#0" fromLane="0" to="104709794#0" toLane="0"/>
    <delete from="-104709794#1" fromLane="0" to="-104709794#0" toLane="0"/>
    <delete from="-104709794#1" fromLane="0" to="889122979" toLane="0"/>
    <delete from="-104709794#1" fromLane="0" to="104709794#1" toLane="0"/>
    <delete from="-104709794#2" fromLane="0" to="-104709794#1" toLane="0"/>
    <delete from="-104709794#2" fromLane="0" to="104709794#2" toLane="0"/>
    <delete from="-104709794#3" fromLane="0" to="-104709794#2" toLane="0"/>
    <delete from="-104709794#3" fromLane="0" to="104709794#3" toLane="0"/>
    <delete from="-104709800#1" fromLane="0" to="-443014109" toLane="0"/>
    <delete from="-104709800#1" fromLane="0" to="-244486735#3" toLane="0"/>
    <delete from="-104709800#1" fromLane="0" to="443007340" toLane="0"/>
    <delete from="-104709800#1" fromLane="0" to="104709800#0" toLane="0"/>
    <delete from="-104709800#2" fromLane="0" to="-913485584#1" toLane="0"/>
    <delete from="-104709800#2" fromLane="0" to="-104709800#1" toLane="0"/>
    <delete from="-104709800#2" fromLane="0" to="104709800#2" toLane="0"/>
    <delete from="-104709800#3" fromLane="0" to="-104709800#2" toLane="0"/>
    <delete from="-104709800#3" fromLane="0" to="104709800#3" toLane="0"/>
    <delete from="-104709800#4" fromLane="0" to="-104709800#3" toLane="0"/>
    <delete from="-104709800#4" fromLane="0" to="50463828#1" toLane="0"/>
    <delete from="-104709800#4" fromLane="0" to="240431962#1" toLane="0"/>
    <delete from="-104709800#4" fromLane="0" to="104709800#4" toLane="0"/>
    <delete from="-104709807#1" fromLane="0" to="-28534932#6" toLane="0"/>
    <delete from="-104709807#1" fromLane="0" to="-244486738#1" toLane="0"/>
    <delete from="-104709807#1" fromLane="0" to="65411786#1" toLane="0"/>
    <delete from="-104709807#1" fromLane="0" to="128898028#0" toLane="0"/>
    <delete from="-104709807#1" fromLane="0" to="104709807#0" toLane="0"/>
    <delete from="-105014790#0" fromLane="0" to="-124416766" toLane="0"/>
    <delete from="-105014790#0" fromLane="0" to="645561019#0" toLane="0"/>
    <delete from="-105014790#0" fromLane="0" to="105014790#0" toLane="0"/>
    <delete from="-105014790#1" fromLane="0" to="-105014790#0" toLane="0"/>
    <delete from="-105014790#2" fromLane="0" to="-596012374" toLane="0"/>
    <delete from="-105014790#2" fromLane="0" to="-105014790#1" toLane="0"/>
    <delete from="-105014790#2" fromLane="0" to="105014790#2" toLane="0"/>
    <delete from="-105014796" fromLane="0" to="181713522" toLane="0"/>
    <delete from="-105014796" fromLane="0" to="-179646614" toLane="0"/>
    <delete from="-105014796" fromLane="0" to="-130870039#2" toLane="0"/>
    <delete from="-105014796" fromLane="0" to="105014796" toLane="0"/>
    <delete from="-105020957" fromLane="0" to="105020957" toLane="0"/>
    <delete from="-105197667#0" fromLane="0" to="212112831#0" toLane="0"/>
    <delete from="-105197667#0" fromLane="0" to="-212112851" toLane="0"/>
    <delete from="-105197667#0" fromLane="0" to="105197667#0" toLane="0"/>
    <delete from="-105197667#1" fromLane="0" to="781987042" toLane="0"/>
    <delete from="-105197667#1" fromLane="0" to="-105197667#0" toLane="0"/>
    <delete from="-105197667#1" fromLane="0" to="105197667#1" toLane="0"/>
    <delete from="-105197668" fromLane="0" to="-105197694#0" toLane="0"/>
    <delete from="-105197668" fromLane="0" to="105197694#1" toLane="0"/>
    <delete from="-105197668" fromLane="0" to="105197668" toLane="0"/>
    <delete from="-105197681" fromLane="0" to="105197685#1" toLane="0"/>
    <delete from="-105197681" fromLane="0" to="-105197685#0" toLane="0"/>
    <delete from="-105197681" fromLane="0" to="105197681" toLane="0"/>
    <delete from="-105197685#0" fromLane="0" to="-27273765#4" toLane="0"/>
    <delete from="-105197685#0" fromLane="0" to="27273765#5" toLane="0"/>
    <delete from="-105197685#0" fromLane="0" to="105197685#0" toLane="0"/>
    <delete from="-105197685#1" fromLane="0" to="-105197685#0" toLane="0"/>
    <delete from="-105197685#1" fromLane="0" to="105197681" toLane="0"/>
    <delete from="-105197685#1" fromLane="0" to="105197685#1" toLane="0"/>
    <delete from="-105197694#0" fromLane="0" to="212112831#3" toLane="0"/>
    <delete from="-105197694#0" fromLane="0" to="-212112831#2" toLane="0"/>
    <delete from="-105197694#0" fromLane="0" to="105197694#0" toLane="0"/>
    <delete from="-105197694#1" fromLane="0" to="105197668" toLane="0"/>
    <delete from="-105197694#1" fromLane="0" to="-105197694#0" toLane="0"/>
    <delete from="-105197694#1" fromLane="0" to="105197694#1" toLane="0"/>
    <delete from="-105197697#0" fromLane="0" to="27273802#1" toLane="0"/>
    <delete from="-105197697#0" fromLane="0" to="-27273802#0" toLane="0"/>
    <delete from="-105197697#0" fromLane="0" to="105197697#0" toLane="0"/>
    <delete from="-105197697#1" fromLane="0" to="178153991#0" toLane="0"/>
    <delete from="-105197697#1" fromLane="0" to="-105197697#0" toLane="0"/>
    <delete from="-105197697#1" fromLane="0" to="105197697#1" toLane="0"/>
    <delete from="-105197701" fromLane="0" to="27273765#4" toLane="0"/>
    <delete from="-105197701" fromLane="0" to="-27273765#3" toLane="0"/>
    <delete from="-105197701" fromLane="0" to="105197701" toLane="0"/>
    <delete from="-105197723" fromLane="0" to="23696275#14" toLane="0"/>
    <delete from="-105197723" fromLane="0" to="-23696275#13" toLane="0"/>
    <delete from="-105197723" fromLane="0" to="105197723" toLane="0"/>
    <delete from="-105285246" fromLane="0" to="34203641#3" toLane="0"/>
    <delete from="-105285246" fromLane="0" to="-34203641#2" toLane="0"/>
    <delete from="-105285246" fromLane="0" to="105285246" toLane="0"/>
    <delete from="-105436006#0" fromLane="0" to="-35980404#1" toLane="0"/>
    <delete from="-105436006#0" fromLane="0" to="35980404#2" toLane="0"/>
    <delete from="-105436006#0" fromLane="0" to="42019665" toLane="0"/>
    <delete from="-105436006#1" fromLane="0" to="-105436006#0" toLane="0"/>
    <delete from="-105436006#1" fromLane="0" to="105436006#1" toLane="0"/>
    <delete from="-105436006#2" fromLane="0" to="-105436006#1" toLane="0"/>
    <delete from="-105436006#2" fromLane="0" to="42019666" toLane="0"/>
    <delete from="-105436006#2" fromLane="0" to="105436006#2" toLane="0"/>
    <delete from="-105436006#3" fromLane="0" to="-42019668#1" toLane="0"/>
    <delete from="-105436006#3" fromLane="0" to="-105436006#2" toLane="0"/>
    <delete from="-105436006#3" fromLane="0" to="105436006#3" toLane="0"/>
    <delete from="-105436008#0" fromLane="0" to="-105436006#3" toLane="0"/>
    <delete from="-105436008#0" fromLane="0" to="42019667" toLane="0"/>
    <delete from="-105436008#0" fromLane="0" to="105436006#4" toLane="0"/>
    <delete from="-105436008#1" fromLane="0" to="-105436008#0" toLane="0"/>
    <delete from="-105436008#1" fromLane="0" to="105436008#1" toLane="0"/>
    <delete from="-105436565#0" fromLane="0" to="306417543#3" toLane="0"/>
    <delete from="-105436565#0" fromLane="0" to="-306417543#2" toLane="0"/>
    <delete from="-105436565#0" fromLane="0" to="105436565#0" toLane="0"/>
    <delete from="-105436565#1" fromLane="0" to="-105436565#0" toLane="0"/>
    <delete from="-105436565#1" fromLane="0" to="105436565#1" toLane="0"/>
    <delete from="-105436565#2" fromLane="0" to="-105436565#1" toLane="0"/>
    <delete from="-105436565#2" fromLane="0" to="178154056" toLane="0"/>
    <delete from="-105436565#2" fromLane="0" to="105436565#2" toLane="0"/>
    <delete from="-105436565#3" fromLane="0" to="-105436565#2" toLane="0"/>
    <delete from="-105436565#3" fromLane="0" to="105436565#3" toLane="0"/>
    <delete from="-105436565#4" fromLane="0" to="-105436565#3" toLane="0"/>
    <delete from="-105436565#4" fromLane="0" to="105436565#4" toLane="0"/>
    <delete from="-105592740#1" fromLane="0" to="177194348#17" toLane="0"/>
    <delete from="-105592740#1" fromLane="0" to="-34160113#4" toLane="0"/>