<?xml version="1.0" encoding="UTF-8"?>
<!-- generated on 2021-12-20 16:18:52.679958 by netdiff.py v1_10_0+0000-83496a5972
  options: ../osm/osm.net.xml prt_test.net.xml diff
-->
<nodes version="1.9" xmlns:xsi="http://www.w3.org/2001/XMLSchema-instance" xsi:noNamespaceSchemaLocation="http://sumo.dlr.de/xsd/nodes_file.xsd">
    <!-- Deleted Elements -->
    <delete id="1000044393"/>
    <delete id="1003092331"/>
    <delete id="1003092347"/>
    <delete id="1011303786"/>
    <delete id="1012044155"/>
    <delete id="1012044186"/>
    <delete id="1012051424"/>
    <delete id="1012051438"/>
    <delete id="1018520507"/>
    <delete id="1018520515"/>
    <delete id="1021201381"/>
    <delete id="1021201384"/>
    <delete id="1033589606"/>
    <delete id="104494833-AddedOnRampNode"/>
    <delete id="1051438476"/>
    <delete id="1051438480"/>
    <delete id="1053673448"/>
    <delete id="1053673451"/>
    <delete id="1053673454"/>
    <delete id="1053673474"/>
    <delete id="1064529019"/>
    <delete id="1064529022"/>
    <delete id="1065229392"/>
    <delete id="1065229393"/>
    <delete id="1065229422"/>
    <delete id="1065229425"/>
    <delete id="1065229426"/>
    <delete id="1073483026"/>
    <delete id="1073483240"/>
    <delete id="1073483462"/>
    <delete id="1077030125"/>
    <delete id="1077030140"/>
    <delete id="1077030163"/>
    <delete id="1078564751"/>
    <delete id="1078564850"/>
    <delete id="1078564858"/>
    <delete id="1080179190"/>
    <delete id="1092500252"/>
    <delete id="1097719199"/>
    <delete id="1100448713"/>
    <delete id="1100448716"/>
    <delete id="1104674717"/>
    <delete id="1104674761"/>
    <delete id="1104674775"/>
    <delete id="1104674847"/>
    <delete id="1104674907"/>
    <delete id="1104674996"/>
    <delete id="1104675001"/>
    <delete id="1128211744"/>
    <delete id="1128211872"/>
    <delete id="1128211878"/>
    <delete id="1128211904"/>
    <delete id="1128211906"/>
    <delete id="1128271570"/>
    <delete id="1128271595"/>
    <delete id="1128271608"/>
    <delete id="1148270718"/>
    <delete id="1148270727"/>
    <delete id="1152948003"/>
    <delete id="1152948008"/>
    <delete id="1152948011"/>
    <delete id="1152948014"/>
    <delete id="1152948018"/>
    <delete id="1152948019"/>
    <delete id="1152948022"/>
    <delete id="1152948040"/>
    <delete id="1152948047"/>
    <delete id="1152948053"/>
    <delete id="1152948058"/>
    <delete id="1152948061"/>
    <delete id="1152948072"/>
    <delete id="1154380626"/>
    <delete id="1154402862"/>
    <delete id="1154402864"/>
    <delete id="1154402866"/>
    <delete id="1154402872"/>
    <delete id="1163273811"/>
    <delete id="1163273819"/>
    <delete id="1163273872"/>
    <delete id="1163636333"/>
    <delete id="1163636549"/>
    <delete id="1163637743"/>
    <delete id="1163638868"/>
    <delete id="1163639748"/>
    <delete id="1163640206"/>
    <delete id="1163640886"/>
    <delete id="1170526404"/>
    <delete id="1170526407"/>
    <delete id="1170526412"/>
    <delete id="1170610772"/>
    <delete id="1170610781"/>
    <delete id="1170610785"/>
    <delete id="1170610860"/>
    <delete id="1170610875"/>
    <delete id="1170610895"/>
    <delete id="1170610929"/>
    <delete id="1170610941"/>
    <delete id="1170610969"/>
    <delete id="1170610993"/>
    <delete id="1170610999"/>
    <delete id="1170611015"/>
    <delete id="1170611044"/>
    <delete id="1170611052"/>
    <delete id="1170611059"/>
    <delete id="1170611071"/>
    <delete id="1170611076"/>
    <delete id="1170611100"/>
    <delete id="1170611147"/>
    <delete id="1170611192"/>
    <delete id="1170611206"/>
    <delete id="1170611212"/>
    <delete id="1170611221"/>
    <delete id="1170611238"/>
    <delete id="1170611244"/>
    <delete id="1170848050"/>
    <delete id="1170848086"/>
    <delete id="1170848104"/>
    <delete id="1170885763"/>
    <delete id="1170885858"/>
    <delete id="1172136115"/>
    <delete id="1172831524"/>
    <delete id="1172831806"/>
    <delete id="1177373915"/>
    <delete id="1177409080"/>
    <delete id="1177409121"/>
    <delete id="1177409149"/>
    <delete id="1177409161"/>
    <delete id="1177409166"/>
    <delete id="1177409199"/>
    <delete id="1177409205"/>
    <delete id="1187971675"/>
    <delete id="1187971678"/>
    <delete id="1189395941"/>
    <delete id="1196935809"/>
    <delete id="1196935810"/>
    <delete id="1196936979"/>
    <delete id="1201668221"/>
    <delete id="1201668245"/>
    <delete id="1201668269"/>
    <delete id="1201668275"/>
    <delete id="1201668300"/>
    <delete id="1201668317"/>
    <delete id="1201668339"/>
    <delete id="1201668343"/>
    <delete id="1201668353"/>
    <delete id="1201668404"/>
    <delete id="1201668434"/>
    <delete id="1201668451"/>
    <delete id="1201668458"/>
    <delete id="1201668475"/>
    <delete id="1201668479"/>
    <delete id="1201668487"/>
    <delete id="1201668489"/>
    <delete id="1201668504"/>
    <delete id="1201668532"/>
    <delete id="1201668540"/>
    <delete id="1201668546"/>
    <delete id="1201668561"/>
    <delete id="1201668604"/>
    <delete id="1201668610"/>
    <delete id="1201668618"/>
    <delete id="1201668619"/>
    <delete id="1201668621"/>
    <delete id="1201668644"/>
    <delete id="1201668650"/>
    <delete id="1201668666"/>
    <delete id="1201668672"/>
    <delete id="1201752690"/>
    <delete id="1201752695"/>
    <delete id="1201752705"/>
    <delete id="1201752713"/>
    <delete id="1201752718"/>
    <delete id="1201752720"/>
    <delete id="1201752726"/>
    <delete id="1205630554"/>
    <delete id="1205630582"/>
    <delete id="1205630622"/>
    <delete id="1205630623"/>
    <delete id="1205630686"/>
    <delete id="1205630693"/>
    <delete id="1205630708"/>
    <delete id="1205630734"/>
    <delete id="1207289212"/>
    <delete id="1207330014"/>
    <delete id="1207330018"/>
    <delete id="1207330031"/>
    <delete id="1207330039"/>
    <delete id="1207330040"/>
    <delete id="1207351645"/>
    <delete id="1207679248"/>
    <delete id="1207679249"/>
    <delete id="1207679273"/>
    <delete id="1207767946"/>
    <delete id="1207767948"/>
    <delete id="1207767950"/>
    <delete id="1207767965"/>
    <delete id="1207767966"/>
    <delete id="1207767968"/>
    <delete id="1207767969"/>
    <delete id="1207767989"/>
    <delete id="1207767999"/>
    <delete id="1207768001"/>
    <delete id="1207768019"/>
    <delete id="1207768026"/>
    <delete id="1207768045"/>
    <delete id="1207768054"/>
    <delete id="1208477963"/>
    <delete id="1208502048"/>
    <delete id="1209228329"/>
    <delete id="1209228331"/>
    <delete id="1209228332"/>
    <delete id="1209228341"/>
    <delete id="1209228347"/>
    <delete id="1209228348"/>
    <delete id="1209228351"/>
    <delete id="1209228356"/>
    <delete id="1209228370"/>
    <delete id="1209266633"/>
    <delete id="1210178715"/>
    <delete id="1210666297"/>
    <delete id="1210666306"/>
    <delete id="1210666338"/>
    <delete id="1210666383"/>
    <delete id="1210666396"/>
    <delete id="1210666449"/>
    <delete id="1210666450"/>
    <delete id="1210666507"/>
    <delete id="1210666525"/>
    <delete id="1210666527"/>
    <delete id="1210737280"/>
    <delete id="1210737284"/>
    <delete id="1210737331"/>
    <delete id="1210737337"/>
    <delete id="1210749732"/>
    <delete id="1212244135"/>
    <delete id="1212244146"/>
    <delete id="1212244178"/>
    <delete id="1212244179"/>
    <delete id="1212244181"/>
    <delete id="1212244184"/>
    <delete id="1212244220"/>
    <delete id="1212244227"/>
    <delete id="1212244228"/>
    <delete id="1212244284"/>
    <delete id="1212244302"/>
    <delete id="1212244305"/>
    <delete id="1212244342"/>
    <delete id="1212244345"/>
    <delete id="1212244352"/>
    <delete id="1213383123"/>
    <delete id="1213383594"/>
    <delete id="1213559708"/>
    <delete id="1213559717"/>
    <delete id="1219421974"/>
    <delete id="1219421990"/>
    <delete id="1219422182"/>
    <delete id="1219422350"/>
    <delete id="1219422524"/>
    <delete id="1219422627"/>
    <delete id="1227626550"/>
    <delete id="1227626561"/>
    <delete id="1234027412"/>
    <delete id="1234027417"/>
    <delete id="1234027424"/>
    <delete id="1234027434"/>
    <delete id="1234090127"/>
    <delete id="1234090129"/>
    <delete id="1234090143"/>
    <delete id="1234090152"/>
    <delete id="1234090160"/>
    <delete id="1234090161"/>
    <delete id="1234090163"/>
    <delete id="1234090170"/>
    <delete id="1234090179"/>
    <delete id="1235084947"/>
    <delete id="1235084948"/>
    <delete id="1235084950"/>
    <delete id="1238368020"/>
    <delete id="1239643260"/>
    <delete id="1239643272"/>
    <delete id="1243200314"/>
    <delete id="1244343169"/>
    <delete id="1249020357"/>
    <delete id="1250325893"/>
    <delete id="1250325905"/>
    <delete id="1250325950"/>
    <delete id="1277265856"/>
    <delete id="1286580228"/>
    <delete id="1306203746"/>
    <delete id="1306203810"/>
    <delete id="1307698529"/>
    <delete id="1307698545"/>
    <delete id="1307698580"/>
    <delete id="1307698589"/>
    <delete id="1307962152"/>
    <delete id="1307962174"/>
    <delete id="1310819822"/>
    <delete id="1310819837"/>
    <delete id="1310819908"/>
    <delete id="1310819941"/>
    <delete id="1313275562"/>
    <delete id="1326761195"/>
    <delete id="1326761197"/>
    <delete id="1326761204"/>
    <delete id="1326761210"/>
    <delete id="1326761226"/>
    <delete id="1326761251"/>
    <delete id="1326761252"/>
    <delete id="1326761254"/>
    <delete id="1326761256"/>
    <delete id="1326761260"/>
    <delete id="1326761270"/>
    <delete id="1326761279"/>
    <delete id="1326761282"/>
    <delete id="1326761291"/>
    <delete id="1326761293"/>
    <delete id="1326761299"/>
    <delete id="1326761308"/>
    <delete id="1326765706"/>
    <delete id="1326765723"/>
    <delete id="1326765742"/>
    <delete id="1331127350"/>
    <delete id="1347563086"/>
    <delete id="1364903489"/>
    <delete id="1364903490"/>
    <delete id="1364903491"/>
    <delete id="1377620131"/>
    <delete id="1377620133"/>
    <delete id="1377620134"/>
    <delete id="1377620142"/>
    <delete id="1377620145"/>
    <delete id="1377620158"/>
    <delete id="1377620161"/>
    <delete id="1377620167"/>
    <delete id="1377620171"/>
    <delete id="1384946484"/>
    <delete id="1384946486"/>
    <delete id="1384946487"/>
    <delete id="1384946490"/>
    <delete id="1393881074"/>
    <delete id="1393881081"/>
    <delete id="1393881083"/>
    <delete id="1393881088"/>
    <delete id="1398504813"/>
    <delete id="1404715474"/>
    <delete id="1404715477"/>
    <delete id="1404715478"/>
    <delete id="1404715479"/>
    <delete id="1405223184"/>
    <delete id="1405223214"/>
    <delete id="1405223222"/>
    <delete id="1405223226"/>
    <delete id="1405223227"/>
    <delete id="1405249418"/>
    <delete id="1405249447"/>
    <delete id="1405249458"/>
    <delete id="1405249466"/>
    <delete id="1405249474"/>
    <delete id="1406226801"/>
    <delete id="1406226820"/>
    <delete id="1406226821"/>
    <delete id="1406226849"/>
    <delete id="1406250412"/>
    <delete id="1406250442"/>
    <delete id="1406250445"/>
    <delete id="1406252169"/>
    <delete id="1406294157"/>
    <delete id="1406294160"/>
    <delete id="1406294178"/>
    <delete id="1406294205"/>
    <delete id="1406314227"/>
    <delete id="1406324186"/>
    <delete id="1410505623"/>
    <delete id="1410505649"/>
    <delete id="1410505664"/>
    <delete id="1410505679"/>
    <delete id="1410505689"/>
    <delete id="1410505693"/>
    <delete id="1410505700"/>
    <delete id="1410505708"/>
    <delete id="1410505716"/>
    <delete id="1410505720"/>
    <delete id="1410505722"/>
    <delete id="1411150059"/>
    <delete id="1411502692"/>
    <delete id="1411502739"/>
    <delete id="1411502751"/>
    <delete id="1411502770"/>
    <delete id="1411502814"/>
    <delete id="1411502820"/>
    <delete id="1411502853"/>
    <delete id="1411502854"/>
    <delete id="1411502871"/>
    <delete id="1411502894"/>
    <delete id="1411502917"/>
    <delete id="1411502984"/>
    <delete id="1411503020"/>
    <delete id="1411538500"/>
    <delete id="1412416017"/>
    <delete id="1412416018"/>
    <delete id="1412416024"/>
    <delete id="1412824995"/>
    <delete id="1412831232"/>
    <delete id="1412831233"/>
    <delete id="1413086065"/>
    <delete id="1413086076"/>
    <delete id="1413086080"/>
    <delete id="1413086121"/>
    <delete id="1413086157"/>
    <delete id="1413086162"/>
    <delete id="1415371723"/>
    <delete id="1415390586"/>
    <delete id="1422904378"/>
    <delete id="1422904392"/>
    <delete id="1423089036"/>
    <delete id="1423089053"/>
    <delete id="1423089064"/>
    <delete id="1423089068"/>
    <delete id="1423089069"/>
    <delete id="1423089071"/>
    <delete id="1423089072"/>
    <delete id="1423089082"/>
    <delete id="1423089083"/>
    <delete id="1423089086"/>
    <delete id="1423089087"/>
    <delete id="1423089088"/>
    <delete id="1423153566"/>
    <delete id="1423153568"/>
    <delete id="1423153569"/>
    <delete id="1423165859"/>
    <delete id="1423165861"/>
    <delete id="1423165863"/>
    <delete id="1423165865"/>
    <delete id="1423165866"/>
    <delete id="1423165868"/>
    <delete id="1423165870"/>
    <delete id="1423165877"/>
    <delete id="1423165881"/>
    <delete id="1423165884"/>
    <delete id="1423165890"/>
    <delete id="1423165892"/>
    <delete id="1423165896"/>
    <delete id="1423165899"/>
    <delete id="1423165917"/>
    <delete id="1423165936"/>
    <delete id="1423165994"/>
    <delete id="1423166005"/>
    <delete id="1423166007"/>
    <delete id="1423166009"/>
    <delete id="1423166012"/>
    <delete id="1423166017"/>
    <delete id="1423166023"/>
    <delete id="1423166051"/>
    <delete id="1423179204"/>
    <delete id="1423179227"/>
    <delete id="1423179244"/>
    <delete id="1423214369"/>
    <delete id="1423214487"/>
    <delete id="1423214493"/>
    <delete id="1423214494"/>
    <delete id="1425367429"/>
    <delete id="1425367469"/>
    <delete id="1435952996"/>
    <delete id="1435952997"/>
    <delete id="1444966949"/>
    <delete id="1449018764"/>
    <delete id="1449018765"/>
    <delete id="1449078055"/>
    <delete id="1449078081"/>
    <delete id="1450040154"/>
    <delete id="1450105455"/>
    <delete id="1450105473"/>
    <delete id="1463804843"/>
    <delete id="1463804897"/>
    <delete id="1463804921"/>
    <delete id="1463822736"/>
    <delete id="1463822756"/>
    <delete id="1463905739"/>
    <delete id="1463905746"/>
    <delete id="1463907369"/>
    <delete id="1463907372"/>
    <delete id="1463912544"/>
    <delete id="1464352004"/>
    <delete id="1464352020"/>
    <delete id="1464364866"/>
    <delete id="1464364871"/>
    <delete id="1464364888"/>
    <delete id="1465643693"/>
    <delete id="1465643755"/>
    <delete id="1468735390"/>
    <delete id="1468735399"/>
    <delete id="1468735403"/>
    <delete id="1468735404"/>
    <delete id="1468735429"/>
    <delete id="1468735434"/>
    <delete id="1468735435"/>
    <delete id="1468735512"/>
    <delete id="1468735518"/>
    <delete id="1468761746"/>
    <delete id="1470053817"/>
    <delete id="1470053845"/>
    <delete id="1470053900"/>
    <delete id="1470053916"/>
    <delete id="1470069151"/>
    <delete id="1470069185"/>
    <delete id="1482316667"/>
    <delete id="1482316671"/>
    <delete id="1482316673"/>
    <delete id="1482316675"/>
    <delete id="1482316677"/>
    <delete id="1482316678"/>
    <delete id="1482316679"/>
    <delete id="1483295177"/>
    <delete id="1496469031"/>
    <delete id="1496469033"/>
    <delete id="1496469040"/>
    <delete id="1496469081"/>
    <delete id="1496469098"/>
    <delete id="1496469131"/>
    <delete id="1496469246"/>
    <delete id="1496469261"/>
    <delete id="1496469340"/>
    <delete id="1497203539"/>
    <delete id="1497203541"/>
    <delete id="1497203545"/>
    <delete id="1497203546"/>
    <delete id="1497203548"/>
    <delete id="1497203549"/>
    <delete id="1497203550"/>
    <delete id="1497203553"/>
    <delete id="1497203554"/>
    <delete id="1497203557"/>
    <delete id="1497203558"/>
    <delete id="1497203560"/>
    <delete id="1497203561"/>
    <delete id="1497211991"/>
    <delete id="1497301402"/>
    <delete id="1497301428"/>
    <delete id="1497301436"/>
    <delete id="1497301446"/>
    <delete id="1497301450"/>
    <delete id="1497301472"/>
    <delete id="1497301491"/>
    <delete id="1497301502"/>
    <delete id="1497301506"/>
    <delete id="1497301516"/>
    <delete id="1497301529"/>
    <delete id="1497301530"/>
    <delete id="1497301538"/>
    <delete id="1497301539"/>
    <delete id="1497301549"/>
    <delete id="1497301568"/>
    <delete id="1497301865"/>
    <delete id="1497302047"/>
    <delete id="1497396671"/>
    <delete id="1497396780"/>
    <delete id="1497396879"/>
    <delete id="1497397036"/>
    <delete id="1497397077"/>
    <delete id="1497516797"/>
    <delete id="1497516811"/>
    <delete id="1497516951"/>
    <delete id="1498473650"/>
    <delete id="1498473709"/>
    <delete id="1498473729"/>
    <delete id="1498500574"/>
    <delete id="1498503513"/>
    <delete id="1498503525"/>
    <delete id="1498503526"/>
    <delete id="1498503545"/>
    <delete id="1498503558"/>
    <delete id="1498503571"/>
    <delete id="1498503583"/>
    <delete id="1498798116"/>
    <delete id="1498798123"/>
    <delete id="1498798152"/>
    <delete id="1498798158"/>
    <delete id="1498798191"/>
    <delete id="1498798194"/>
    <delete id="1535229316"/>
    <delete id="1542427476"/>
    <delete id="1542427514"/>
    <delete id="1542427655"/>
    <delete id="1542752393"/>
    <delete id="1542775788"/>
    <delete id="1542775831"/>
    <delete id="1542775967"/>
    <delete id="1545649192"/>
    <delete id="1545649317"/>
    <delete id="1545649350"/>
    <delete id="1545649384"/>
    <delete id="1545649407"/>
    <delete id="1545671816"/>
    <delete id="1545671819"/>
    <delete id="1545671838"/>
    <delete id="1545671872"/>
    <delete id="1545671913"/>
    <delete id="1545671918"/>
    <delete id="1568370294"/>
    <delete id="1568370324"/>
    <delete id="1568370365"/>
    <delete id="1568370398"/>
    <delete id="1568370406"/>
    <delete id="1568370585"/>
    <delete id="1568370601"/>
    <delete id="1568370682"/>
    <delete id="1568370684"/>
    <delete id="1568370711"/>
    <delete id="1568370785"/>
    <delete id="1568370841"/>
    <delete id="1568371053"/>
    <delete id="1568371101"/>
    <delete id="1568445414"/>
    <delete id="1568445495"/>
    <delete id="1568445546"/>
    <delete id="1568445556"/>
    <delete id="1568445565"/>
    <delete id="1568445593"/>
    <delete id="1568445605"/>
    <delete id="1568445609"/>
    <delete id="1573786368"/>
    <delete id="1573786450"/>
    <delete id="1573786476"/>
    <delete id="1573786539"/>
    <delete id="1573786581"/>
    <delete id="1573786582"/>
    <delete id="1573786645"/>
    <delete id="1573798085"/>
    <delete id="1573798137"/>
    <delete id="1573798313"/>
    <delete id="1573798324"/>
    <delete id="1573798326"/>
    <delete id="1573798334"/>
    <delete id="1573798349"/>
    <delete id="1582880112"/>
    <delete id="1582880117"/>
    <delete id="1582880131"/>
    <delete id="1582880134"/>
    <delete id="1582880136"/>
    <delete id="1583046874"/>
    <delete id="1590976696"/>
    <delete id="1590976793"/>
    <delete id="1590976812"/>
    <delete id="1590977021"/>
    <delete id="1591059819"/>
    <delete id="1591059882"/>
    <delete id="1591060086"/>
    <delete id="1591060187"/>
    <delete id="1591098979"/>
    <delete id="1591098995"/>
    <delete id="1591148071"/>
    <delete id="1592991167"/>
    <delete id="1592991204"/>
    <delete id="1594777793"/>
    <delete id="1594777805"/>
    <delete id="1599619114"/>
    <delete id="1599796371"/>
    <delete id="1599798002"/>
    <delete id="1599820486"/>
    <delete id="1599820487"/>
    <delete id="1601609678"/>
    <delete id="1601609681"/>
    <delete id="1604725089"/>
    <delete id="1613370258"/>
    <delete id="1613370266"/>
    <delete id="1626902400"/>
    <delete id="1626914935"/>
    <delete id="1639142880"/>
    <delete id="1640227054"/>
    <delete id="1644118443"/>
    <delete id="1644178314"/>
    <delete id="1644178316"/>
    <delete id="1644178338"/>
    <delete id="1644178342"/>
    <delete id="1644178350"/>
    <delete id="1644178355"/>
    <delete id="1644182174"/>
    <delete id="1644182175"/>
    <delete id="1644182176"/>
    <delete id="1644182178"/>
    <delete id="1644182179"/>
    <delete id="1644182181"/>
    <delete id="1644182182"/>
    <delete id="1644182185"/>
    <delete id="1644182186"/>
    <delete id="1644182189"/>
    <delete id="1644193803"/>
    <delete id="1644193806"/>
    <delete id="1644383774"/>
    <delete id="1645467924"/>
    <delete id="1645467926"/>
    <delete id="1645481720"/>
    <delete id="1645481721"/>
    <delete id="1645481722"/>
    <delete id="1645481724"/>
    <delete id="1645481727"/>
    <delete id="1645512817"/>
    <delete id="1645512823"/>
    <delete id="1645512824"/>
    <delete id="1645512838"/>
    <delete id="1645512842"/>
    <delete id="1645512843"/>
    <delete id="1664185212"/>
    <delete id="1666114179"/>
    <delete id="1666114181"/>
    <delete id="1666124443"/>
    <delete id="1666124445"/>
    <delete id="1667948102"/>
    <delete id="1667948104"/>
    <delete id="1667971216"/>
    <delete id="1671884163"/>
    <delete id="1672438096"/>
    <delete id="1672438188"/>
    <delete id="1672438292"/>
    <delete id="1672438464"/>
    <delete id="1672438984"/>
    <delete id="1672439076"/>
    <delete id="1672507080"/>
    <delete id="1672507083"/>
    <delete id="1672507680"/>
    <delete id="1672507683"/>
    <delete id="1676737736"/>
    <delete id="1676737762"/>
    <delete id="1676737764"/>
    <delete id="1676737765"/>
    <delete id="1676750684"/>
    <delete id="1676750687"/>
    <delete id="1676750689"/>
    <delete id="1676750699"/>
    <delete id="1676750700"/>
    <delete id="1676750702"/>
    <delete id="1676750703"/>
    <delete id="1676750706"/>
    <delete id="1676750707"/>
    <delete id="1676750708"/>
    <delete id="1676750710"/>
    <delete id="1676750722"/>
    <delete id="1676750724"/>
    <delete id="1676750726"/>
    <delete id="1676756337"/>
    <delete id="1676756342"/>
    <delete id="1676756344"/>
    <delete id="1676756347"/>
    <delete id="1676756349"/>
    <delete id="1676756351"/>
    <delete id="1676977248"/>
    <delete id="1676977249"/>
    <delete id="1676981985"/>
    <delete id="1676981997"/>
    <delete id="1676981999"/>
    <delete id="1676982018"/>
    <delete id="1676982025"/>
    <delete id="1676995027"/>
    <delete id="1676995035"/>
    <delete id="1676995047"/>
    <delete id="1677160502"/>
    <delete id="1677160506"/>
    <delete id="1677160509"/>
    <delete id="1677160520"/>
    <delete id="1677160529"/>
    <delete id="1677172401"/>
    <delete id="1677172404"/>
    <delete id="1693572430"/>
    <delete id="1693572440"/>
    <delete id="1693572445"/>
    <delete id="1694639506"/>
    <delete id="1694639512"/>
    <delete id="1694639514"/>
    <delete id="1694639529"/>
    <delete id="1694639548"/>
    <delete id="1694639563"/>
    <delete id="1694639568"/>
    <delete id="1694639587"/>
    <delete id="1694639627"/>
    <delete id="1696157664"/>
    <delete id="1696176612"/>
    <delete id="1696239705"/>
    <delete id="1696239713"/>
    <delete id="1696239735"/>
    <delete id="1696239740"/>
    <delete id="1696239762"/>
    <delete id="1696239764"/>
    <delete id="1697715207"/>
    <delete id="1697715243"/>
    <delete id="1697715262"/>
    <delete id="1697715279"/>
    <delete id="1697715281"/>
    <delete id="1697715294"/>
    <delete id="1697729704"/>
    <delete id="1697729718"/>
    <delete id="1697748061"/>
    <delete id="1697947094"/>
    <delete id="1697947096"/>
    <delete id="1698047202"/>
    <delete id="1698047213"/>
    <delete id="1698047219"/>
    <delete id="1698047263"/>
    <delete id="1698047268"/>
    <delete id="1698047303"/>
    <delete id="1710072339"/>
    <delete id="1710072370"/>
    <delete id="1710072378"/>
    <delete id="1712853709"/>
    <delete id="1712853712"/>
    <delete id="1712853744"/>
    <delete id="1713983492"/>
    <delete id="1713983543"/>
    <delete id="1715878251"/>
    <delete id="1716203501"/>
    <delete id="1716223185"/>
    <delete id="1716223210"/>
    <delete id="1719183021"/>
    <delete id="1719188130"/>
    <delete id="1719188131"/>
    <delete id="1719188133"/>
    <delete id="1719188135"/>
    <delete id="1719188136"/>
    <delete id="1719188137"/>
    <delete id="1719188140"/>
    <delete id="1719188146"/>
    <delete id="1719193457"/>
    <delete id="1719197568"/>
    <delete id="1719197573"/>
    <delete id="1719197606"/>
    <delete id="1719208693"/>
    <delete id="1719208695"/>
    <delete id="1719208697"/>
    <delete id="1719208716"/>
    <delete id="1719208717"/>
    <delete id="1719208718"/>
    <delete id="1719208719"/>
    <delete id="1719461438"/>
    <delete id="1719461500"/>
    <delete id="1719468910"/>
    <delete id="1719560992"/>
    <delete id="1719561001"/>
    <delete id="1719561030"/>
    <delete id="1719561113"/>
    <delete id="1719561118"/>
    <delete id="1719561119"/>
    <delete id="1719561121"/>
    <delete id="1719561123"/>
    <delete id="1719561126"/>
    <delete id="1719561132"/>
    <delete id="1719561135"/>
    <delete id="1719561140"/>
    <delete id="1719561144"/>
    <delete id="1719561147"/>
    <delete id="1719561148"/>
    <delete id="1719561166"/>
    <delete id="1719561168"/>
    <delete id="1719561171"/>
    <delete id="1719561173"/>
    <delete id="1719561174"/>
    <delete id="1719561175"/>
    <delete id="1719561178"/>
    <delete id="1719561179"/>
    <delete id="1719561182"/>
    <delete id="1719561184"/>
    <delete id="1719561186"/>
    <delete id="1719561190"/>
    <delete id="1719561194"/>
    <delete id="1719561232"/>
    <delete id="1720190002"/>
    <delete id="1720190004"/>
    <delete id="1720190020"/>
    <delete id="1720192017"/>
    <delete id="1720192018"/>
    <delete id="1720192019"/>
    <delete id="1720192022"/>
    <delete id="1720192029"/>
    <delete id="1720196183"/>
    <delete id="1720196185"/>
    <delete id="1720196192"/>
    <delete id="1720196197"/>
    <delete id="1720196201"/>
    <delete id="1720196217"/>
    <delete id="1720227560"/>
    <delete id="1720227588"/>
    <delete id="1720227592"/>
    <delete id="1720227639"/>
    <delete id="1720227716"/>
    <delete id="1720227721"/>
    <delete id="1720227918"/>
    <delete id="1720227938"/>
    <delete id="1720227943"/>
    <delete id="1720227992"/>
    <delete id="1720249637"/>
    <delete id="1720249639"/>
    <delete id="1720249643"/>
    <delete id="1720487081"/>
    <delete id="1720504281"/>
    <delete id="1720504283"/>
    <delete id="1720504286"/>
    <delete id="1720504288"/>
    <delete id="1720512351"/>
    <delete id="1720512352"/>
    <delete id="1720540752"/>
    <delete id="1720540753"/>
    <delete id="1720540755"/>
    <delete id="1720540841"/>
    <delete id="1720739492"/>
    <delete id="1720746307"/>
    <delete id="1720746313"/>
    <delete id="1720748154"/>
    <delete id="1720748929"/>
    <delete id="1720750928"/>
    <delete id="1720799321"/>
    <delete id="1721459073"/>
    <delete id="1721628894"/>
    <delete id="1721632746"/>
    <delete id="1721632790"/>
    <delete id="1721650718"/>
    <delete id="1739482012"/>
    <delete id="1739482014"/>
    <delete id="1767320562"/>
    <delete id="1767320563"/>
    <delete id="1767320565"/>
    <delete id="1781670357"/>
    <delete id="1781670382"/>
    <delete id="1811485607"/>
    <delete id="1811485610"/>
    <delete id="1811485626"/>
    <delete id="1821503667"/>
    <delete id="1821503669"/>
    <delete id="1821503670"/>
    <delete id="1831219318"/>
    <delete id="1831219322"/>
    <delete id="1831219328"/>
    <delete id="1844121659"/>
    <delete id="1857141724"/>
    <delete id="1857141788"/>
    <delete id="1857141811"/>
    <delete id="1857141840"/>
    <delete id="1857141843"/>
    <delete id="1857141850"/>
    <delete id="1857141858"/>
    <delete id="1857141864"/>
    <delete id="1857141865"/>
    <delete id="1857141866"/>
    <delete id="1857141868"/>
    <delete id="1858741529"/>
    <delete id="1858741530"/>
    <delete id="1858741537"/>
    <delete id="1858741548"/>
    <delete id="1858741550"/>
    <delete id="1858741551"/>
    <delete id="1858741554"/>
    <delete id="1858741555"/>
    <delete id="1858741569"/>
    <delete id="1858741571"/>
    <delete id="1858741575"/>
    <delete id="1858741582"/>
    <delete id="1858741592"/>
    <delete id="1858741598"/>
    <delete id="1858741625"/>
    <delete id="1858741638"/>
    <delete id="1858741641"/>
    <delete id="1860088776"/>
    <delete id="1860088803"/>
    <delete id="1860088817"/>
    <delete id="1860088827"/>
    <delete id="1860088834"/>
    <delete id="1860088860"/>
    <delete id="1860088868"/>
    <delete id="1860088870"/>
    <delete id="1860088874"/>
    <delete id="1860088882"/>
    <delete id="1860088901"/>
    <delete id="1860088902"/>
    <delete id="1860112838"/>
    <delete id="1860112848"/>
    <delete id="1876342746"/>
    <delete id="1876478219"/>
    <delete id="1876478260"/>
    <delete id="1876478305"/>
    <delete id="1876478306"/>
    <delete id="1876478310"/>
    <delete id="1876502586"/>
    <delete id="1876502632"/>
    <delete id="1876505508"/>
    <delete id="1876818655"/>
    <delete id="1876818661"/>
    <delete id="1876818662"/>
    <delete id="1876818666"/>
    <delete id="1877260796"/>
    <delete id="1877260806"/>