<?xml version="1.0" encoding="UTF-8"?>
<!-- generated on 2021-12-20 16:18:57.949017 by netdiff.py v1_10_0+0000-83496a5972
  options: ../osm/osm.net.xml prt_test.net.xml diff
-->
<tlLogics version="1.9" xmlns:xsi="http://www.w3.org/2001/XMLSchema-instance" xsi:noNamespaceSchemaLocation="http://sumo.dlr.de/xsd/tllogic_file.xsd">
    <!-- Deleted Elements -->
    <!-- implicit via changed node type: <delete id="1207767966" programID="0"/> -->
    <!-- implicit via changed node type: <delete id="8989141951" programID="0"/> -->
    <!-- implicit via changed node type: <delete id="GS_cluster_1672439092_1672439108" programID="0"/> -->
    <!-- implicit via changed node type: <delete id="GS_cluster_1719477035_1719477040_286944637_286944638" programID="0"/> -->
    <!-- implicit via changed node type: <delete id="GS_cluster_2517924762_2517924766_76471700_76471702" programID="0"/> -->
    <!-- implicit via changed node type: <delete id="GS_cluster_267198458_267198459" programID="0"/> -->
    <!-- implicit via changed node type: <delete id="cluster_1205630581_2015016940_2015016941" programID="0"/> -->
    <!-- implicit via changed node type: <delete id="cluster_1205630662_1207289208_1423165912_4406635032_8369732650" programID="0"/> -->
    <!-- implicit via changed node type: <delete id="cluster_1423165961_1423165962_259997109_259997110_2834788801_3150602447_451791043_451791046" programID="0"/> -->
    <!-- implicit via changed node type: <delete id="cluster_1423165972_1423165975_1720196179_1720196181_2701491282_5894881728_5894881729" programID="0"/> -->
    <!-- implicit via changed node type: <delete id="cluster_1423165998_1698047149_1698047152_1698047183" programID="0"/> -->
    <!-- implicit via changed node type: <delete id="cluster_1423166044_2482880334_2482880338_2701491285_2701491287_2701491288_3105811954_338474034_3587379558_8358711549_8360978011" programID="0"/> -->
    <!-- implicit via changed node type: <delete id="cluster_1698047100_4406635056_5846632473_5956160360" programID="0"/> -->
    <!-- implicit via changed node type: <delete id="cluster_1719495812_259997081_301598371_752052885_769123046_769123048" programID="0"/> -->
    <!-- implicit via changed node type: <delete id="cluster_1888550163_420546421_637033720" programID="0"/> -->
    <!-- implicit via changed node type: <delete id="cluster_1916384349_1916384352_1916384356_248191547_2701491286_2701491289_3806250286" programID="0"/> -->
    <!-- implicit via changed node type: <delete id="cluster_3089068466_338474022" programID="0"/> -->
    <!-- implicit via changed node type: <delete id="joinedS_0" programID="0"/> -->
    <!-- implicit via changed node type: <delete id="joinedS_1" programID="0"/> -->
    <!-- implicit via changed node type: <delete id="joinedS_2" programID="0"/> -->
    <delete from="-101371626#3" fromLane="0" to="-443014117#6" toLane="0" linkIndex="21" tl="cluster_1205630662_1207289208_1423165912_4406635032_8369732650"/>
    <delete from="-101371626#3" fromLane="0" to="443014117#7" toLane="0" linkIndex="22" tl="cluster_1205630662_1207289208_1423165912_4406635032_8369732650"/>
    <delete from="-101371626#3" fromLane="0" to="-101371626#1" toLane="0" linkIndex="23" tl="cluster_1205630662_1207289208_1423165912_4406635032_8369732650"/>
    <delete from="-101371626#3" fromLane="0" to="-197638009#1" toLane="0" linkIndex="24" tl="cluster_1205630662_1207289208_1423165912_4406635032_8369732650"/>
    <delete from="-101371626#3" fromLane="1" to="-85131428#1" toLane="0" linkIndex="25" tl="cluster_1205630662_1207289208_1423165912_4406635032_8369732650"/>
    <delete from="-101371626#3" fromLane="1" to="197638009#3" toLane="0" linkIndex="26" tl="cluster_1205630662_1207289208_1423165912_4406635032_8369732650"/>
    <delete from="-101371626#3" fromLane="1" to="101371626#3" toLane="1" linkIndex="27" tl="cluster_1205630662_1207289208_1423165912_4406635032_8369732650"/>
    <delete from="-105014790#1" fromLane="0" to="-105014790#0" toLane="0" linkIndex="0" tl="1243200314"/>
    <delete from="-126866126#0" fromLane="0" to="-900157907#0" toLane="0" linkIndex="1" tl="1405223222"/>
    <delete from="-126992227#1" fromLane="0" to="-126992227#0" toLane="0" linkIndex="1" tl="6221987437"/>
    <delete from="-127993283" fromLane="0" to="33140246" toLane="0" linkIndex="7" tl="cluster_1719495812_259997081_301598371_752052885_769123046_769123048"/>
    <delete from="-127993283" fromLane="0" to="127435977" toLane="0" linkIndex="8" tl="cluster_1719495812_259997081_301598371_752052885_769123046_769123048"/>
    <delete from="-127993283" fromLane="0" to="-190644690#1" toLane="0" linkIndex="9" tl="cluster_1719495812_259997081_301598371_752052885_769123046_769123048"/>
    <delete from="-127993283" fromLane="0" to="127435987#1" toLane="1" linkIndex="10" tl="cluster_1719495812_259997081_301598371_752052885_769123046_769123048"/>
    <delete from="-127993283" fromLane="0" to="140124291#0" toLane="0" linkIndex="11" tl="cluster_1719495812_259997081_301598371_752052885_769123046_769123048"/>
    <delete from="-127993283" fromLane="0" to="166726937" toLane="0" linkIndex="12" tl="cluster_1719495812_259997081_301598371_752052885_769123046_769123048"/>
    <delete from="-128897283#0" fromLane="0" to="-197638009#4" toLane="0" linkIndex="42" tl="joinedS_1"/>
    <delete from="-128897283#0" fromLane="0" to="624255414#1" toLane="0" linkIndex="43" tl="joinedS_1"/>
    <delete from="-128897283#0" fromLane="0" to="-26222158#1" toLane="0" linkIndex="44" tl="joinedS_1"/>
    <delete from="-128897283#0" fromLane="0" to="624255419#1" toLane="0" linkIndex="45" tl="joinedS_1"/>
    <delete from="-128898026#1" fromLane="0" to="-128898026#0" toLane="0" linkIndex="0" tl="joinedS_2"/>
    <delete from="-128898026#1" fromLane="0" to="240561432#1" toLane="0" linkIndex="1" tl="joinedS_2"/>
    <delete from="-128898026#1" fromLane="0" to="128898026#1" toLane="0" linkIndex="2" tl="joinedS_2"/>
    <delete from="-128898026#2" fromLane="0" to="-128898026#1" toLane="0" linkIndex="29" tl="joinedS_2"/>
    <delete from="-128898026#2" fromLane="0" to="443014125#0" toLane="0" linkIndex="30" tl="joinedS_2"/>
    <delete from="-128898026#2" fromLane="0" to="224479256#1" toLane="0" linkIndex="31" tl="joinedS_2"/>
    <delete from="-128898026#2" fromLane="0" to="128898026#2" toLane="0" linkIndex="32" tl="joinedS_2"/>
    <delete from="-128898030#1" fromLane="0" to="34750425#2" toLane="0" linkIndex="5" tl="cluster_1423165972_1423165975_1720196179_1720196181_2701491282_5894881728_5894881729"/>
    <delete from="-128898030#1" fromLane="0" to="159950717#0" toLane="0" linkIndex="6" tl="cluster_1423165972_1423165975_1720196179_1720196181_2701491282_5894881728_5894881729"/>
    <delete from="-128898030#1" fromLane="0" to="128897291#0" toLane="0" linkIndex="7" tl="cluster_1423165972_1423165975_1720196179_1720196181_2701491282_5894881728_5894881729"/>
    <delete from="-128898030#1" fromLane="0" to="-104709807#1" toLane="0" linkIndex="8" tl="cluster_1423165972_1423165975_1720196179_1720196181_2701491282_5894881728_5894881729"/>
    <delete from="-128898030#1" fromLane="0" to="128898030#1" toLane="0" linkIndex="9" tl="cluster_1423165972_1423165975_1720196179_1720196181_2701491282_5894881728_5894881729"/>
    <delete from="-140124291#0" fromLane="0" to="166726937" toLane="0" linkIndex="13" tl="cluster_1719495812_259997081_301598371_752052885_769123046_769123048"/>
    <delete from="-140124291#0" fromLane="0" to="33140246" toLane="0" linkIndex="14" tl="cluster_1719495812_259997081_301598371_752052885_769123046_769123048"/>
    <delete from="-140124291#0" fromLane="0" to="127435977" toLane="0" linkIndex="15" tl="cluster_1719495812_259997081_301598371_752052885_769123046_769123048"/>
    <delete from="-140124291#0" fromLane="0" to="-190644690#1" toLane="0" linkIndex="16" tl="cluster_1719495812_259997081_301598371_752052885_769123046_769123048"/>
    <delete from="-140124291#0" fromLane="0" to="127435987#1" toLane="1" linkIndex="17" tl="cluster_1719495812_259997081_301598371_752052885_769123046_769123048"/>
    <delete from="-140124291#0" fromLane="0" to="140124291#0" toLane="0" linkIndex="18" tl="cluster_1719495812_259997081_301598371_752052885_769123046_769123048"/>
    <delete from="-144784599#2" fromLane="0" to="-144784599#1" toLane="0" linkIndex="0" tl="1018520515"/>
    <delete from="-159950717#0" fromLane="0" to="128897291#0" toLane="0" linkIndex="20" tl="cluster_1423165972_1423165975_1720196179_1720196181_2701491282_5894881728_5894881729"/>
    <delete from="-159950717#0" fromLane="0" to="-104709807#1" toLane="0" linkIndex="21" tl="cluster_1423165972_1423165975_1720196179_1720196181_2701491282_5894881728_5894881729"/>
    <delete from="-159950717#0" fromLane="0" to="128898030#1" toLane="0" linkIndex="22" tl="cluster_1423165972_1423165975_1720196179_1720196181_2701491282_5894881728_5894881729"/>
    <delete from="-159950717#0" fromLane="0" to="34750425#2" toLane="0" linkIndex="23" tl="cluster_1423165972_1423165975_1720196179_1720196181_2701491282_5894881728_5894881729"/>
    <delete from="-159950717#0" fromLane="0" to="159950717#0" toLane="0" linkIndex="24" tl="cluster_1423165972_1423165975_1720196179_1720196181_2701491282_5894881728_5894881729"/>
    <delete from="-181623918#4" fromLane="0" to="-181623918#3" toLane="0" linkIndex="0" tl="1412824995"/>
    <delete from="-197638009#0" fromLane="0" to="124416783#1" toLane="0" linkIndex="20" tl="cluster_1423165961_1423165962_259997109_259997110_2834788801_3150602447_451791043_451791046"/>
    <delete from="-197638009#0" fromLane="0" to="-140124288#0" toLane="0" linkIndex="21" tl="cluster_1423165961_1423165962_259997109_259997110_2834788801_3150602447_451791043_451791046"/>
    <delete from="-197638009#0" fromLane="0" to="197638009#0" toLane="0" linkIndex="22" tl="cluster_1423165961_1423165962_259997109_259997110_2834788801_3150602447_451791043_451791046"/>
    <delete from="-197638009#3" fromLane="0" to="101371626#3" toLane="0" linkIndex="28" tl="cluster_1205630662_1207289208_1423165912_4406635032_8369732650"/>
    <delete from="-197638009#3" fromLane="0" to="-443014117#6" toLane="0" linkIndex="29" tl="cluster_1205630662_1207289208_1423165912_4406635032_8369732650"/>
    <delete from="-197638009#3" fromLane="0" to="443014117#7" toLane="0" linkIndex="30" tl="cluster_1205630662_1207289208_1423165912_4406635032_8369732650"/>
    <delete from="-197638009#3" fromLane="0" to="-101371626#1" toLane="1" linkIndex="31" tl="cluster_1205630662_1207289208_1423165912_4406635032_8369732650"/>
    <delete from="-197638009#3" fromLane="0" to="-197638009#1" toLane="0" linkIndex="32" tl="cluster_1205630662_1207289208_1423165912_4406635032_8369732650"/>
    <delete from="-197638009#3" fromLane="0" to="-85131428#1" toLane="0" linkIndex="33" tl="cluster_1205630662_1207289208_1423165912_4406635032_8369732650"/>
    <delete from="-197638009#3" fromLane="0" to="197638009#3" toLane="0" linkIndex="34" tl="cluster_1205630662_1207289208_1423165912_4406635032_8369732650"/>
    <delete from="-240561421#1" fromLane="0" to="240561459#2" toLane="0" linkIndex="45" tl="joinedS_2"/>
    <delete from="-240561421#1" fromLane="0" to="-240561421#0" toLane="0" linkIndex="46" tl="joinedS_2"/>
    <delete from="-240561421#1" fromLane="0" to="240561421#1" toLane="1" linkIndex="47" tl="joinedS_2"/>
    <delete from="-244477229#1" fromLane="0" to="98462787" toLane="1" linkIndex="4" tl="GS_cluster_1672439092_1672439108"/>
    <delete from="-244486735#3" fromLane="0" to="624255416#1" toLane="0" linkIndex="44" tl="joinedS_0"/>
    <delete from="-244486735#3" fromLane="0" to="-244486735#2" toLane="0" linkIndex="45" tl="joinedS_0"/>
    <delete from="-244486735#3" fromLane="0" to="-624255416#0" toLane="0" linkIndex="46" tl="joinedS_0"/>
    <delete from="-244486735#3" fromLane="0" to="244486735#3" toLane="0" linkIndex="47" tl="joinedS_0"/>
    <delete from="-244486738#1" fromLane="0" to="-244486738#0" toLane="0" linkIndex="2" tl="1207767966"/>
    <delete from="-244486738#1" fromLane="0" to="244486738#1" toLane="0" linkIndex="3" tl="1207767966"/>
    <delete from="-25945923#1" fromLane="0" to="-25945923#0" toLane="0" linkIndex="1" tl="654131766"/>
    <delete from="-26222158#1" fromLane="0" to="624255418" toLane="0" linkIndex="16" tl="joinedS_0"/>
    <delete from="-26222158#1" fromLane="0" to="-443007340" toLane="0" linkIndex="17" tl="joinedS_0"/>
    <delete from="-26222158#1" fromLane="0" to="-624255417" toLane="0" linkIndex="18" tl="joinedS_0"/>
    <delete from="-26222158#1" fromLane="0" to="26222158#0" toLane="0" linkIndex="19" tl="joinedS_0"/>
    <delete from="-275348780#1" fromLane="0" to="-275348780#0" toLane="0" linkIndex="1" tl="3792942749"/>
    <delete from="-279252405#1" fromLane="0" to="240561427#1" toLane="0" linkIndex="6" tl="cluster_1423165961_1423165962_259997109_259997110_2834788801_3150602447_451791043_451791046"/>
    <delete from="-279252405#1" fromLane="0" to="197638009#0" toLane="0" linkIndex="7" tl="cluster_1423165961_1423165962_259997109_259997110_2834788801_3150602447_451791043_451791046"/>
    <delete from="-279252405#1" fromLane="0" to="124416783#1" toLane="0" linkIndex="8" tl="cluster_1423165961_1423165962_259997109_259997110_2834788801_3150602447_451791043_451791046"/>
    <delete from="-279252405#1" fromLane="0" to="-140124288#0" toLane="0" linkIndex="9" tl="cluster_1423165961_1423165962_259997109_259997110_2834788801_3150602447_451791043_451791046"/>
    <delete from="-279252405#1" fromLane="0" to="33139932" toLane="0" linkIndex="10" tl="cluster_1423165961_1423165962_259997109_259997110_2834788801_3150602447_451791043_451791046"/>
    <delete from="-279252405#1" fromLane="0" to="279252405#1" toLane="0" linkIndex="11" tl="cluster_1423165961_1423165962_259997109_259997110_2834788801_3150602447_451791043_451791046"/>
    <delete from="-285341486#1" fromLane="0" to="-285341486#0" toLane="0" linkIndex="-1" tl="1154380626"/>
    <delete from="-30610470#2" fromLane="0" to="128897282#8" toLane="0" linkIndex="8" tl="cluster_1423166044_2482880334_2482880338_2701491285_2701491287_2701491288_3105811954_338474034_3587379558_8358711549_8360978011"/>
    <delete from="-30610470#2" fromLane="0" to="240561441#1" toLane="0" linkIndex="9" tl="cluster_1423166044_2482880334_2482880338_2701491285_2701491287_2701491288_3105811954_338474034_3587379558_8358711549_8360978011"/>
    <delete from="-30610470#2" fromLane="0" to="-899626053#2" toLane="0" linkIndex="10" tl="cluster_1423166044_2482880334_2482880338_2701491285_2701491287_2701491288_3105811954_338474034_3587379558_8358711549_8360978011"/>
    <delete from="-30610470#2" fromLane="0" to="899626053#3" toLane="0" linkIndex="11" tl="cluster_1423166044_2482880334_2482880338_2701491285_2701491287_2701491288_3105811954_338474034_3587379558_8358711549_8360978011"/>
    <delete from="-30610470#2" fromLane="0" to="377251795#1" toLane="0" linkIndex="12" tl="cluster_1423166044_2482880334_2482880338_2701491285_2701491287_2701491288_3105811954_338474034_3587379558_8358711549_8360978011"/>
    <delete from="-30610470#2" fromLane="0" to="240561437#3" toLane="1" linkIndex="13" tl="cluster_1423166044_2482880334_2482880338_2701491285_2701491287_2701491288_3105811954_338474034_3587379558_8358711549_8360978011"/>
    <delete from="-30610470#2" fromLane="0" to="30610470#2" toLane="0" linkIndex="14" tl="cluster_1423166044_2482880334_2482880338_2701491285_2701491287_2701491288_3105811954_338474034_3587379558_8358711549_8360978011"/>
    <delete from="-313931872#3" fromLane="0" to="-313931872#2" toLane="0" linkIndex="1" tl="6221987438"/>
    <delete from="-321032863#1" fromLane="0" to="248645889#0" toLane="0" linkIndex="4" tl="GS_cluster_267198458_267198459"/>
    <delete from="-321032863#1" fromLane="1" to="248645889#0" toLane="1" linkIndex="5" tl="GS_cluster_267198458_267198459"/>
    <delete from="-321032863#1" fromLane="1" to="248645890" toLane="1" linkIndex="6" tl="GS_cluster_267198458_267198459"/>
    <delete from="-321032863#1" fromLane="1" to="248645891" toLane="0" linkIndex="7" tl="GS_cluster_267198458_267198459"/>
    <delete from="-327128527" fromLane="0" to="-127563884#2" toLane="0" linkIndex="8" tl="cluster_3089068466_338474022"/>
    <delete from="-327128527" fromLane="0" to="65547487" toLane="0" linkIndex="9" tl="cluster_3089068466_338474022"/>
    <delete from="-327128527" fromLane="1" to="-304378755" toLane="0" linkIndex="10" tl="cluster_3089068466_338474022"/>
    <delete from="-327128527" fromLane="1" to="327128527" toLane="1" linkIndex="11" tl="cluster_3089068466_338474022"/>
    <delete from="-34160113#17" fromLane="0" to="-34160113#15" toLane="0" linkIndex="0" tl="cluster_1888550163_420546421_637033720"/>
    <delete from="-34160113#17" fromLane="0" to="37033885#1" toLane="0" linkIndex="1" tl="cluster_1888550163_420546421_637033720"/>
    <delete from="-34160113#17" fromLane="0" to="34160113#17" toLane="0" linkIndex="2" tl="cluster_1888550163_420546421_637033720"/>
    <delete from="-34750425#3" fromLane="0" to="159950717#0" toLane="0" linkIndex="0" tl="cluster_1423165972_1423165975_1720196179_1720196181_2701491282_5894881728_5894881729"/>
    <delete from="-34750425#3" fromLane="0" to="128897291#0" toLane="0" linkIndex="1" tl="cluster_1423165972_1423165975_1720196179_1720196181_2701491282_5894881728_5894881729"/>
    <delete from="-34750425#3" fromLane="0" to="-104709807#1" toLane="0" linkIndex="2" tl="cluster_1423165972_1423165975_1720196179_1720196181_2701491282_5894881728_5894881729"/>
    <delete from="-34750425#3" fromLane="0" to="128898030#1" toLane="0" linkIndex="3" tl="cluster_1423165972_1423165975_1720196179_1720196181_2701491282_5894881728_5894881729"/>
    <delete from="-34750425#3" fromLane="0" to="34750425#2" toLane="0" linkIndex="4" tl="cluster_1423165972_1423165975_1720196179_1720196181_2701491282_5894881728_5894881729"/>
    <delete from="-34750555#1" fromLane="0" to="-443014117#1" toLane="0" linkIndex="21" tl="joinedS_1"/>
    <delete from="-34750555#1" fromLane="0" to="190904362#1" toLane="0" linkIndex="22" tl="joinedS_1"/>
    <delete from="-34750555#1" fromLane="0" to="443014117#3" toLane="0" linkIndex="23" tl="joinedS_1"/>
    <delete from="-34750555#1" fromLane="0" to="-101371626#4" toLane="1" linkIndex="24" tl="joinedS_1"/>
    <delete from="-37033885#1" fromLane="0" to="34160113#17" toLane="0" linkIndex="3" tl="cluster_1888550163_420546421_637033720"/>
    <delete from="-37033885#1" fromLane="0" to="-34160113#15" toLane="0" linkIndex="4" tl="cluster_1888550163_420546421_637033720"/>
    <delete from="-37033885#1" fromLane="0" to="37033885#1" toLane="0" linkIndex="5" tl="cluster_1888550163_420546421_637033720"/>
    <delete from="-443001711#0" fromLane="0" to="-443007340" toLane="0" linkIndex="28" tl="joinedS_0"/>
    <delete from="-443001711#0" fromLane="0" to="-624255417" toLane="0" linkIndex="29" tl="joinedS_0"/>
    <delete from="-443001711#0" fromLane="0" to="26222158#0" toLane="0" linkIndex="30" tl="joinedS_0"/>
    <delete from="-443001711#0" fromLane="0" to="624255418" toLane="0" linkIndex="31" tl="joinedS_0"/>
    <delete from="-443014109" fromLane="0" to="-128897289#1" toLane="0" linkIndex="12" tl="joinedS_0"/>
    <delete from="-443014109" fromLane="0" to="-443001709#3" toLane="0" linkIndex="13" tl="joinedS_0"/>
    <delete from="-443014109" fromLane="0" to="443014124#0" toLane="0" linkIndex="14" tl="joinedS_0"/>
    <delete from="-443014109" fromLane="0" to="443014109" toLane="0" linkIndex="15" tl="joinedS_0"/>
    <delete from="-443014117#3" fromLane="0" to="190904362#1" toLane="0" linkIndex="13" tl="joinedS_1"/>
    <delete from="-443014117#3" fromLane="0" to="443014117#3" toLane="0" linkIndex="16" tl="joinedS_1"/>
    <delete from="-443014117#3" fromLane="0" to="34750555#0" toLane="0" linkIndex="14" tl="joinedS_1"/>
    <delete from="-443014117#3" fromLane="0" to="-443014117#1" toLane="0" linkIndex="15" tl="joinedS_1"/>
    <delete from="-443014117#5" fromLane="0" to="-101371626#4" toLane="0" linkIndex="0" tl="joinedS_1"/>
    <delete from="-443014117#5" fromLane="0" to="-443014117#4" toLane="0" linkIndex="1" tl="joinedS_1"/>
    <delete from="-443014117#5" fromLane="0" to="443014117#5" toLane="0" linkIndex="2" tl="joinedS_1"/>
    <delete from="-443014117#7" fromLane="0" to="-101371626#1" toLane="0" linkIndex="7" tl="cluster_1205630662_1207289208_1423165912_4406635032_8369732650"/>
    <delete from="-443014117#7" fromLane="0" to="-197638009#1" toLane="0" linkIndex="8" tl="cluster_1205630662_1207289208_1423165912_4406635032_8369732650"/>
    <delete from="-443014117#7" fromLane="0" to="-85131428#1" toLane="0" linkIndex="9" tl="cluster_1205630662_1207289208_1423165912_4406635032_8369732650"/>
    <delete from="-443014117#7" fromLane="0" to="197638009#3" toLane="0" linkIndex="10" tl="cluster_1205630662_1207289208_1423165912_4406635032_8369732650"/>
    <delete from="-443014117#7" fromLane="0" to="101371626#3" toLane="1" linkIndex="11" tl="cluster_1205630662_1207289208_1423165912_4406635032_8369732650"/>
    <delete from="-443014117#7" fromLane="0" to="-443014117#6" toLane="0" linkIndex="12" tl="cluster_1205630662_1207289208_1423165912_4406635032_8369732650"/>
    <delete from="-443014117#7" fromLane="0" to="443014117#7" toLane="0" linkIndex="13" tl="cluster_1205630662_1207289208_1423165912_4406635032_8369732650"/>
    <delete from="-443014124#0" fromLane="0" to="443014109" toLane="0" linkIndex="0" tl="joinedS_0"/>
    <delete from="-443014124#0" fromLane="0" to="-128897289#1" toLane="0" linkIndex="1" tl="joinedS_0"/>
    <delete from="-443014124#0" fromLane="0" to="-443001709#3" toLane="0" linkIndex="2" tl="joinedS_0"/>
    <delete from="-443014124#0" fromLane="0" to="443014124#0" toLane="0" linkIndex="3" tl="joinedS_0"/>
    <delete from="-582633436#0" fromLane="0" to="-508600630#0" toLane="0" linkIndex="-1" tl="654131766"/>
    <delete from="-582633436#2" fromLane="0" to="-582633436#1" toLane="0" linkIndex="-1" tl="1412824995"/>
    <delete from="-582633436#3" fromLane="0" to="-582633436#2" toLane="0" linkIndex="-1" tl="1243200314"/>
    <delete from="-582633436#4" fromLane="0" to="-582633436#3" toLane="0" linkIndex="-1" tl="1018520515"/>
    <delete from="-624255414#1" fromLane="0" to="-26222158#1" toLane="0" linkIndex="30" tl="joinedS_1"/>
    <delete from="-624255414#1" fromLane="0" to="624255419#1" toLane="0" linkIndex="31" tl="joinedS_1"/>
    <delete from="-624255414#1" fromLane="0" to="-197638009#4" toLane="0" linkIndex="32" tl="joinedS_1"/>
    <delete from="-624255414#1" fromLane="0" to="624255414#1" toLane="0" linkIndex="33" tl="joinedS_1"/>
    <delete from="-624255416#1" fromLane="0" to="-244486735#2" toLane="0" linkIndex="40" tl="joinedS_0"/>
    <delete from="-624255416#1" fromLane="0" to="-624255416#0" toLane="0" linkIndex="41" tl="joinedS_0"/>
    <delete from="-624255416#1" fromLane="0" to="244486735#3" toLane="0" linkIndex="42" tl="joinedS_0"/>
    <delete from="-624255416#1" fromLane="0" to="624255416#1" toLane="0" linkIndex="43" tl="joinedS_0"/>
    <delete from="-899626053#0" fromLane="0" to="157571141" toLane="0" linkIndex="63" tl="joinedS_2"/>
    <delete from="-899626053#0" fromLane="0" to="-128898026#2" toLane="0" linkIndex="64" tl="joinedS_2"/>
    <delete from="-899626053#0" fromLane="0" to="-637497503" toLane="0" linkIndex="65" tl="joinedS_2"/>
    <delete from="-899626053#0" fromLane="0" to="899626053#0" toLane="0" linkIndex="66" tl="joinedS_2"/>
    <delete from="-899626053#3" fromLane="0" to="377251795#1" toLane="0" linkIndex="36" tl="cluster_1423166044_2482880334_2482880338_2701491285_2701491287_2701491288_3105811954_338474034_3587379558_8358711549_8360978011"/>
    <delete from="-899626053#3" fromLane="0" to="240561437#3" toLane="0" linkIndex="37" tl="cluster_1423166044_2482880334_2482880338_2701491285_2701491287_2701491288_3105811954_338474034_3587379558_8358711549_8360978011"/>
    <delete from="-899626053#3" fromLane="0" to="30610470#2" toLane="0" linkIndex="38" tl="cluster_1423166044_2482880334_2482880338_2701491285_2701491287_2701491288_3105811954_338474034_3587379558_8358711549_8360978011"/>
    <delete from="-899626053#3" fromLane="0" to="128897282#8" toLane="0" linkIndex="39" tl="cluster_1423166044_2482880334_2482880338_2701491285_2701491287_2701491288_3105811954_338474034_3587379558_8358711549_8360978011"/>
    <delete from="-899626053#3" fromLane="0" to="240561441#1" toLane="0" linkIndex="40" tl="cluster_1423166044_2482880334_2482880338_2701491285_2701491287_2701491288_3105811954_338474034_3587379558_8358711549_8360978011"/>
    <delete from="-899626053#3" fromLane="0" to="-899626053#2" toLane="0" linkIndex="41" tl="cluster_1423166044_2482880334_2482880338_2701491285_2701491287_2701491288_3105811954_338474034_3587379558_8358711549_8360978011"/>
    <delete from="-899626053#3" fromLane="0" to="899626053#3" toLane="0" linkIndex="42" tl="cluster_1423166044_2482880334_2482880338_2701491285_2701491287_2701491288_3105811954_338474034_3587379558_8358711549_8360978011"/>
    <delete from="-902042032#0" fromLane="0" to="-902040676#1" toLane="0" linkIndex="17" tl="cluster_1916384349_1916384352_1916384356_248191547_2701491286_2701491289_3806250286"/>
    <delete from="-902042032#0" fromLane="1" to="-240561442#3" toLane="1" linkIndex="18" tl="cluster_1916384349_1916384352_1916384356_248191547_2701491286_2701491289_3806250286"/>
    <delete from="-902042032#0" fromLane="1" to="902042032#0" toLane="1" linkIndex="19" tl="cluster_1916384349_1916384352_1916384356_248191547_2701491286_2701491289_3806250286"/>
    <delete from="-902716316#1" fromLane="0" to="-902716316#0" toLane="0" linkIndex="0" tl="1154380626"/>
    <delete from="-99274794#2" fromLane="0" to="-99274794#0" toLane="0" linkIndex="0" tl="cluster_1189396009_1201668627"/>
    <delete from="101371626#1" fromLane="0" to="-197638009#1" toLane="0" linkIndex="0" tl="cluster_1205630662_1207289208_1423165912_4406635032_8369732650"/>
    <delete from="101371626#1" fromLane="0" to="-85131428#1" toLane="0" linkIndex="1" tl="cluster_1205630662_1207289208_1423165912_4406635032_8369732650"/>
    <delete from="101371626#1" fromLane="0" to="197638009#3" toLane="0" linkIndex="2" tl="cluster_1205630662_1207289208_1423165912_4406635032_8369732650"/>
    <delete from="101371626#1" fromLane="0" to="101371626#3" toLane="1" linkIndex="3" tl="cluster_1205630662_1207289208_1423165912_4406635032_8369732650"/>
    <delete from="101371626#1" fromLane="0" to="-443014117#6" toLane="0" linkIndex="4" tl="cluster_1205630662_1207289208_1423165912_4406635032_8369732650"/>
    <delete from="101371626#1" fromLane="1" to="443014117#7" toLane="0" linkIndex="5" tl="cluster_1205630662_1207289208_1423165912_4406635032_8369732650"/>
    <delete from="101371626#1" fromLane="1" to="-101371626#1" toLane="1" linkIndex="6" tl="cluster_1205630662_1207289208_1423165912_4406635032_8369732650"/>
    <delete from="101371626#4" fromLane="0" to="34750555#0" toLane="0" linkIndex="25" tl="joinedS_1"/>
    <delete from="101371626#4" fromLane="0" to="-443014117#1" toLane="0" linkIndex="26" tl="joinedS_1"/>
    <delete from="101371626#4" fromLane="1" to="190904362#1" toLane="0" linkIndex="27" tl="joinedS_1"/>
    <delete from="101371626#4" fromLane="1" to="443014117#3" toLane="0" linkIndex="28" tl="joinedS_1"/>
    <delete from="101371626#4" fromLane="1" to="-101371626#4" toLane="1" linkIndex="29" tl="joinedS_1"/>
    <delete from="104494823#6" fromLane="0" to="-279126934#2" toLane="0" linkIndex="8" tl="cluster_1205630581_2015016940_2015016941"/>
    <delete from="104494823#6" fromLane="0" to="190904366#1" toLane="1" linkIndex="9" tl="cluster_1205630581_2015016940_2015016941"/>
    <delete from="104494823#6" fromLane="0" to="190904362#5" toLane="0" linkIndex="10" tl="cluster_1205630581_2015016940_2015016941"/>
    <delete from="104494823#6" fromLane="0" to="-104494827" toLane="0" linkIndex="11" tl="cluster_1205630581_2015016940_2015016941"/>
    <delete from="104668976#0" fromLane="0" to="-618580873#0" toLane="0" linkIndex="0" tl="cluster_1698047100_4406635056_5846632473_5956160360"/>
    <delete from="104668976#0" fromLane="0" to="443014120#4" toLane="0" linkIndex="1" tl="cluster_1698047100_4406635056_5846632473_5956160360"/>
    <delete from="104668976#0" fromLane="0" to="286119049" toLane="0" linkIndex="2" tl="cluster_1698047100_4406635056_5846632473_5956160360"/>
    <delete from="104668976#0" fromLane="0" to="225006793#0" toLane="1" linkIndex="3" tl="cluster_1698047100_4406635056_5846632473_5956160360"/>
    <delete from="104709807#0" fromLane="0" to="128898030#1" toLane="0" linkIndex="15" tl="cluster_1423165972_1423165975_1720196179_1720196181_2701491282_5894881728_5894881729"/>
    <delete from="104709807#0" fromLane="0" to="34750425#2" toLane="0" linkIndex="16" tl="cluster_1423165972_1423165975_1720196179_1720196181_2701491282_5894881728_5894881729"/>
    <delete from="104709807#0" fromLane="0" to="159950717#0" toLane="0" linkIndex="17" tl="cluster_1423165972_1423165975_1720196179_1720196181_2701491282_5894881728_5894881729"/>
    <delete from="104709807#0" fromLane="0" to="128897291#0" toLane="0" linkIndex="18" tl="cluster_1423165972_1423165975_1720196179_1720196181_2701491282_5894881728_5894881729"/>
    <delete from="104709807#0" fromLane="0" to="-104709807#1" toLane="0" linkIndex="19" tl="cluster_1423165972_1423165975_1720196179_1720196181_2701491282_5894881728_5894881729"/>
    <delete from="104709810#0" fromLane="0" to="-197638009#4" toLane="0" linkIndex="38" tl="joinedS_1"/>
    <delete from="104709810#0" fromLane="0" to="624255414#1" toLane="0" linkIndex="39" tl="joinedS_1"/>
    <delete from="104709810#0" fromLane="0" to="-26222158#1" toLane="0" linkIndex="40" tl="joinedS_1"/>
    <delete from="104709810#0" fromLane="0" to="624255419#1" toLane="0" linkIndex="41" tl="joinedS_1"/>
    <delete from="105014790#0" fromLane="0" to="105014790#1" toLane="0" linkIndex="1" tl="1243200314"/>
    <delete from="124416778#1" fromLane="0" to="159982581" toLane="0" linkIndex="0" tl="8989141951"/>