<?xml version="1.0" encoding="UTF-8"?>
<!-- generated on 2021-12-20 16:18:55.214115 by netdiff.py v1_10_0+0000-83496a5972
  options: ../osm/osm.net.xml prt_test.net.xml diff
-->
<edges version="1.9" xmlns:xsi="http://www.w3.org/2001/XMLSchema-instance" xsi:noNamespaceSchemaLocation="http://sumo.dlr.de/xsd/edgediff_file.xsd">
    <!-- Deleted Elements -->
    <delete id="-100622984#0"/>
    <delete id="-100622984#1"/>
    <delete id="-100655979"/>
    <delete id="-100655982"/>
    <delete id="-100655989#0"/>
    <delete id="-100655989#1"/>
    <delete id="-100655990"/>
    <delete id="-101368427"/>
    <delete id="-101368435"/>
    <delete id="-101368444"/>
    <delete id="-101368446#0"/>
    <delete id="-101368446#1"/>
    <delete id="-101368453#1"/>
    <delete id="-101368453#2"/>
    <delete id="-101371626#0"/>
    <delete id="-101371626#1"/>
    <delete id="-101371626#3"/>
    <delete id="-101371626#4"/>
    <delete id="-101374520"/>
    <delete id="-101374521#0"/>
    <delete id="-101374521#2"/>
    <delete id="-101374522#0"/>
    <delete id="-101374522#1"/>
    <delete id="-101374523#0"/>
    <delete id="-101374523#2"/>
    <delete id="-101374523#3"/>
    <delete id="-101374524#0"/>
    <delete id="-101374524#1"/>
    <delete id="-101374525#0"/>
    <delete id="-101374525#1"/>
    <delete id="-101374526"/>
    <delete id="-101374530#1"/>
    <delete id="-101374530#2"/>
    <delete id="-101374530#3"/>
    <delete id="-101374530#4"/>
    <delete id="-101374531#0"/>
    <delete id="-101374531#1"/>
    <delete id="-101374532"/>
    <delete id="-101374533#0"/>
    <delete id="-101374533#1"/>
    <delete id="-101374533#2"/>
    <delete id="-101374534#0"/>
    <delete id="-101374534#1"/>
    <delete id="-101374535#1"/>
    <delete id="-101374537"/>
    <delete id="-101374538#1"/>
    <delete id="-101374540#0"/>
    <delete id="-101374540#1"/>
    <delete id="-101390606#0"/>
    <delete id="-101390606#1"/>
    <delete id="-101390606#2"/>
    <delete id="-101390606#3"/>
    <delete id="-101513321"/>
    <delete id="-101988386#0"/>
    <delete id="-101988386#1"/>
    <delete id="-101988386#2"/>
    <delete id="-101988388"/>
    <delete id="-101988390"/>
    <delete id="-101988403#0"/>
    <delete id="-101988403#1"/>
    <delete id="-101988403#10"/>
    <delete id="-101988403#11"/>
    <delete id="-101988403#12"/>
    <delete id="-101988403#13"/>
    <delete id="-101988403#14"/>
    <delete id="-101988403#15"/>
    <delete id="-101988403#2"/>
    <delete id="-101988403#3"/>
    <delete id="-101988403#5"/>
    <delete id="-101988403#6"/>
    <delete id="-101988403#7"/>
    <delete id="-101988403#8"/>
    <delete id="-101988403#9"/>
    <delete id="-102868609"/>
    <delete id="-102868617#0"/>
    <delete id="-102868617#2"/>
    <delete id="-104494823#0"/>
    <delete id="-104494823#1"/>
    <delete id="-104494823#2"/>
    <delete id="-104494827"/>
    <delete id="-104494834"/>
    <delete id="-104494837"/>
    <delete id="-104494839#0"/>
    <delete id="-104494840#0"/>
    <delete id="-104494840#1"/>
    <delete id="-104494844#0"/>
    <delete id="-104494844#1"/>
    <delete id="-104494845"/>
    <delete id="-104665538"/>
    <delete id="-104665539"/>
    <delete id="-104668977#0"/>
    <delete id="-104668977#1"/>
    <delete id="-104709794#0"/>
    <delete id="-104709794#1"/>
    <delete id="-104709794#2"/>
    <delete id="-104709794#3"/>
    <delete id="-104709800#1"/>
    <delete id="-104709800#2"/>
    <delete id="-104709800#3"/>
    <delete id="-104709800#4"/>
    <delete id="-104709807#1"/>
    <delete id="-105014790#0"/>
    <delete id="-105014790#1"/>
    <delete id="-105014790#2"/>
    <delete id="-105014796"/>
    <delete id="-105020957"/>
    <delete id="-105197667#0"/>
    <delete id="-105197667#1"/>
    <delete id="-105197668"/>
    <delete id="-105197681"/>
    <delete id="-105197685#0"/>
    <delete id="-105197685#1"/>
    <delete id="-105197694#0"/>
    <delete id="-105197694#1"/>
    <delete id="-105197697#0"/>
    <delete id="-105197697#1"/>
    <delete id="-105197701"/>
    <delete id="-105197723"/>
    <delete id="-105285246"/>
    <delete id="-105436006#0"/>
    <delete id="-105436006#1"/>
    <delete id="-105436006#2"/>
    <delete id="-105436006#3"/>
    <delete id="-105436008#0"/>
    <delete id="-105436008#1"/>
    <delete id="-105436565#0"/>
    <delete id="-105436565#1"/>
    <delete id="-105436565#2"/>
    <delete id="-105436565#3"/>
    <delete id="-105436565#4"/>
    <delete id="-105592740#1"/>
    <delete id="-105592740#2"/>
    <delete id="-105592740#3"/>
    <delete id="-105592740#4"/>
    <delete id="-105592740#5"/>
    <delete id="-105592740#6"/>
    <delete id="-105592740#7"/>
    <delete id="-107358283#0"/>
    <delete id="-107358283#1"/>
    <delete id="-107358283#2"/>
    <delete id="-107366414"/>
    <delete id="-107366416#0"/>
    <delete id="-107366419"/>
    <delete id="-107366422#0"/>
    <delete id="-107366422#1"/>
    <delete id="-107366422#2"/>
    <delete id="-107366422#3"/>
    <delete id="-107366422#4"/>
    <delete id="-107366426"/>
    <delete id="-107366429"/>
    <delete id="-107366432"/>
    <delete id="-107366434#0"/>
    <delete id="-107366434#1"/>
    <delete id="-107366437#0"/>
    <delete id="-107366437#1"/>
    <delete id="-107366440#0"/>
    <delete id="-107366440#1"/>
    <delete id="-107366440#2"/>
    <delete id="-107366440#3"/>
    <delete id="-107469181#0"/>
    <delete id="-107469181#1"/>
    <delete id="-107469181#2"/>
    <delete id="-107469183"/>
    <delete id="-107469186"/>
    <delete id="-107733518#0"/>
    <delete id="-107733518#1"/>
    <delete id="-107733518#3"/>
    <delete id="-107958241"/>
    <delete id="-108342127"/>
    <delete id="-108342128#0"/>
    <delete id="-108342128#1"/>
    <delete id="-108448592#0"/>
    <delete id="-108448592#1"/>
    <delete id="-108448592#2"/>
    <delete id="-108448592#3"/>
    <delete id="-108448592#4"/>
    <delete id="-108448592#5"/>
    <delete id="-108448592#6"/>
    <delete id="-108448595#0"/>
    <delete id="-109149876"/>
    <delete id="-109149879"/>
    <delete id="-110703841#0"/>
    <delete id="-110703841#1"/>
    <delete id="-110703841#2"/>
    <delete id="-110703841#4"/>
    <delete id="-110703842"/>
    <delete id="-115675470"/>
    <delete id="-115849592#0"/>
    <delete id="-115849592#1"/>
    <delete id="-115849594#0"/>
    <delete id="-115849594#1"/>
    <delete id="-115882209#0"/>
    <delete id="-115882209#1"/>
    <delete id="-115882209#2"/>
    <delete id="-116196031#0"/>
    <delete id="-116196031#1"/>
    <delete id="-116196031#2"/>
    <delete id="-116196031#3"/>
    <delete id="-116196031#4"/>
    <delete id="-116196036#0"/>
    <delete id="-116196036#1"/>
    <delete id="-116196036#2"/>
    <delete id="-116196036#3"/>
    <delete id="-116196036#4"/>
    <delete id="-116196036#5"/>
    <delete id="-117862548#0"/>
    <delete id="-117862548#1"/>
    <delete id="-117862551"/>
    <delete id="-117862552#0"/>
    <delete id="-117862552#1"/>
    <delete id="-117862555#0"/>
    <delete id="-117862555#1"/>
    <delete id="-117862555#2"/>
    <delete id="-117862556"/>
    <delete id="-117862557#0"/>
    <delete id="-117862557#1"/>
    <delete id="-117862557#2"/>
    <delete id="-117862558#0"/>
    <delete id="-117862558#1"/>
    <delete id="-117862558#2"/>
    <delete id="-117862558#3"/>
    <delete id="-117862558#4"/>
    <delete id="-117862560#0"/>
    <delete id="-117862560#1"/>
    <delete id="-117862560#2"/>
    <delete id="-117862560#3"/>
    <delete id="-117863744#0"/>
    <delete id="-117863744#1"/>
    <delete id="-119669114"/>
    <delete id="-120657128"/>
    <delete id="-122936162"/>
    <delete id="-122936178"/>
    <delete id="-122936181#0"/>
    <delete id="-122936181#1"/>
    <delete id="-122936181#2"/>
    <delete id="-122936181#3"/>
    <delete id="-122936190"/>
    <delete id="-122936192"/>
    <delete id="-122936210#0"/>
    <delete id="-122936210#1"/>
    <delete id="-122936210#2"/>
    <delete id="-122936210#3"/>
    <delete id="-122936210#4"/>
    <delete id="-122936210#5"/>
    <delete id="-122936215#0"/>
    <delete id="-122936215#1"/>
    <delete id="-122936215#2"/>
    <delete id="-122936215#3"/>
    <delete id="-122936215#4"/>
    <delete id="-122936215#5"/>
    <delete id="-122936215#6"/>
    <delete id="-122936215#7"/>
    <delete id="-122936215#8"/>
    <delete id="-122939233#0"/>
    <delete id="-122939233#1"/>
    <delete id="-122939243"/>
    <delete id="-122939270"/>
    <delete id="-122958361"/>
    <delete id="-122958362"/>
    <delete id="-122958365"/>
    <delete id="-123587958#0"/>
    <delete id="-123587958#1"/>
    <delete id="-123587958#2"/>
    <delete id="-123587958#3"/>
    <delete id="-123587959"/>
    <delete id="-123587960#0"/>
    <delete id="-123587960#1"/>
    <delete id="-124416766"/>
    <delete id="-124416768"/>
    <delete id="-124416773#0"/>
    <delete id="-124416773#1"/>
    <delete id="-124416773#2"/>
    <delete id="-124416773#3"/>
    <delete id="-124416776#0"/>
    <delete id="-124416776#2"/>
    <delete id="-124416801#0"/>
    <delete id="-124416801#1"/>
    <delete id="-124896762#0"/>
    <delete id="-124896762#1"/>
    <delete id="-125510000"/>
    <delete id="-125515158#0"/>
    <delete id="-125515158#1"/>
    <delete id="-125515295"/>
    <delete id="-126812153"/>
    <delete id="-126866126#0"/>
    <delete id="-126866126#1"/>
    <delete id="-126866126#2"/>
    <delete id="-126868702"/>
    <delete id="-126868703#0"/>
    <delete id="-126868703#1"/>
    <delete id="-126868703#2"/>
    <delete id="-126984898#0"/>
    <delete id="-126984898#1"/>
    <delete id="-126986337"/>
    <delete id="-126986338#0"/>
    <delete id="-126986338#1"/>
    <delete id="-126986339"/>
    <delete id="-126992227#0"/>
    <delete id="-126992227#1"/>
    <delete id="-126992227#2"/>
    <delete id="-127435983"/>
    <delete id="-127435989#0"/>
    <delete id="-127435989#1"/>
    <delete id="-127435989#2"/>
    <delete id="-127435989#3"/>
    <delete id="-127435989#4"/>
    <delete id="-127435989#5"/>
    <delete id="-127435991#0"/>
    <delete id="-127435991#1"/>
    <delete id="-127435992"/>
    <delete id="-127435994"/>
    <delete id="-127435996"/>
    <delete id="-127512347#0"/>
    <delete id="-127529157#0"/>
    <delete id="-127529157#1"/>
    <delete id="-127529157#2"/>
    <delete id="-127529157#4"/>
    <delete id="-127529205"/>
    <delete id="-127529206#0"/>
    <delete id="-127529206#1"/>
    <delete id="-127529206#2"/>
    <delete id="-127529206#3"/>
    <delete id="-127529207#0"/>
    <delete id="-127529207#1"/>
    <delete id="-127529207#2"/>
    <delete id="-127529207#3"/>
    <delete id="-127529207#4"/>
    <delete id="-127529207#5"/>
    <delete id="-127529207#6"/>
    <delete id="-127529207#7"/>
    <delete id="-127563869#0"/>
    <delete id="-127563869#1"/>
    <delete id="-127563869#2"/>
    <delete id="-127563869#3"/>
    <delete id="-127563880"/>
    <delete id="-127563883#1"/>
    <delete id="-127563884#0"/>
    <delete id="-127563884#2"/>
    <delete id="-127657355"/>
    <delete id="-127657356"/>
    <delete id="-127727139#0"/>
    <delete id="-127727139#1"/>
    <delete id="-127727146#0"/>
    <delete id="-127727146#1"/>
    <delete id="-127727148"/>
    <delete id="-127727149"/>
    <delete id="-127727150#0"/>
    <delete id="-127727150#1"/>
    <delete id="-127727150#2"/>
    <delete id="-127727990"/>
    <delete id="-127988753"/>
    <delete id="-127993283"/>
    <delete id="-127993287"/>
    <delete id="-127993288"/>
    <delete id="-127993291"/>
    <delete id="-127994153"/>
    <delete id="-128341584"/>
    <delete id="-128870287#0"/>
    <delete id="-128870287#1"/>
    <delete id="-128888447"/>
    <delete id="-128888463#0"/>
    <delete id="-128888463#1"/>
    <delete id="-128888476#0"/>
    <delete id="-128888476#1"/>
    <delete id="-128894638#0"/>
    <delete id="-128894638#1"/>
    <delete id="-128894641"/>
    <delete id="-128894642"/>
    <delete id="-128896381"/>
    <delete id="-128897281#0"/>
    <delete id="-128897281#1"/>
    <delete id="-128897283#0"/>
    <delete id="-128897289#0"/>
    <delete id="-128897289#1"/>
    <delete id="-128898026#0"/>
    <delete id="-128898026#1"/>
    <delete id="-128898026#2"/>
    <delete id="-128898030#1"/>
    <delete id="-128898030#2"/>
    <delete id="-128899608#0"/>
    <delete id="-128899608#1"/>
    <delete id="-130870037#0"/>
    <delete id="-130870037#1"/>
    <delete id="-130870039#0"/>
    <delete id="-130870039#1"/>
    <delete id="-130870039#2"/>
    <delete id="-131252071"/>
    <delete id="-131791165#0"/>
    <delete id="-131791165#1"/>
    <delete id="-131791165#2"/>
    <delete id="-131791165#3"/>
    <delete id="-131791165#4"/>
    <delete id="-131791165#5"/>
    <delete id="-133021575#0"/>
    <delete id="-133021575#1"/>
    <delete id="-133021575#2"/>
    <delete id="-133021575#3"/>
    <delete id="-133021576"/>
    <delete id="-133023601"/>
    <delete id="-133023602"/>
    <delete id="-133023603"/>
    <delete id="-133036465"/>
    <delete id="-133082814"/>
    <delete id="-133082815#0"/>
    <delete id="-133082815#1"/>
    <delete id="-133083218#0"/>
    <delete id="-133083218#1"/>
    <delete id="-133083218#2"/>
    <delete id="-133183921#0"/>
    <delete id="-133183921#1"/>
    <delete id="-133186943#0"/>
    <delete id="-133186943#1"/>
    <delete id="-133186943#2"/>
    <delete id="-133186949"/>
    <delete id="-133419646"/>
    <delete id="-133419651"/>
    <delete id="-133419653"/>
    <delete id="-133419656#0"/>
    <delete id="-133419656#1"/>
    <delete id="-133419656#2"/>
    <delete id="-133419658"/>
    <delete id="-133567552#0"/>
    <delete id="-133567553"/>
    <delete id="-133569447"/>
    <delete id="-134903020"/>
    <delete id="-134903021"/>
    <delete id="-134903022"/>
    <delete id="-134994704#0"/>
    <delete id="-134994704#1"/>
    <delete id="-136061929#0"/>
    <delete id="-136061929#1"/>
    <delete id="-136061929#2"/>
    <delete id="-136061929#3"/>
    <delete id="-136061929#5"/>
    <delete id="-136061929#6"/>
    <delete id="-136061929#7"/>
    <delete id="-136061929#8"/>
    <delete id="-136061929#9"/>
    <delete id="-136427041#0"/>
    <delete id="-136427041#1"/>
    <delete id="-136427041#2"/>
    <delete id="-136427045#0"/>
    <delete id="-136427045#1"/>
    <delete id="-136427047#0"/>
    <delete id="-136427047#1"/>
    <delete id="-136427051"/>
    <delete id="-136491265#0"/>
    <delete id="-136491265#1"/>
    <delete id="-136491265#2"/>
    <delete id="-136491265#3"/>
    <delete id="-136491265#4"/>
    <delete id="-136491265#5"/>
    <delete id="-136491265#6"/>
    <delete id="-136491268"/>
    <delete id="-136491269"/>
    <delete id="-136491271"/>
    <delete id="-136491273"/>
    <delete id="-136491275"/>
    <delete id="-136491277#0"/>
    <delete id="-136491277#1"/>
    <delete id="-136491278#0"/>
    <delete id="-136491278#1"/>
    <delete id="-136491280#0"/>
    <delete id="-136491280#1"/>
    <delete id="-136504775#0"/>
    <delete id="-136504775#1"/>
    <delete id="-136504776"/>
    <delete id="-136504778"/>
    <delete id="-136504779"/>
    <delete id="-136504780"/>
    <delete id="-136504782#0"/>
    <delete id="-136504783"/>
    <delete id="-136504784"/>
    <delete id="-136504785"/>
    <delete id="-136504786#0"/>
    <delete id="-136504786#1"/>
    <delete id="-136504786#2"/>
    <delete id="-136504786#3"/>
    <delete id="-136504787#0"/>
    <delete id="-136504787#1"/>
    <delete id="-136504787#2"/>
    <delete id="-136513583"/>
    <delete id="-136513584#0"/>
    <delete id="-136513584#1"/>
    <delete id="-136513584#2"/>
    <delete id="-136513584#3"/>
    <delete id="-136513585"/>
    <delete id="-136521797"/>
    <delete id="-136521798#0"/>
    <delete id="-136521798#1"/>
    <delete id="-136590403#0"/>
    <delete id="-136590403#1"/>
    <delete id="-136590403#2"/>
    <delete id="-136593386"/>
    <delete id="-136593387#0"/>
    <delete id="-136593387#1"/>
    <delete id="-136593387#2"/>
    <delete id="-136593388#0"/>
    <delete id="-136593388#1"/>
    <delete id="-136593388#2"/>
    <delete id="-136593389"/>
    <delete id="-136614076#0"/>
    <delete id="-136614076#1"/>
    <delete id="-136614076#2"/>
    <delete id="-136614077"/>
    <delete id="-136614078"/>
    <delete id="-136614079#0"/>
    <delete id="-136614079#1"/>
    <delete id="-136614080#0"/>
    <delete id="-136614080#1"/>
    <delete id="-136762789#0"/>
    <delete id="-136762789#2"/>
    <delete id="-140124288#0"/>
    <delete id="-140124289#0"/>
    <delete id="-140124291#0"/>
    <delete id="-140124291#1"/>
    <delete id="-140124291#2"/>
    <delete id="-140872663#0"/>
    <delete id="-140872663#1"/>
    <delete id="-140908000#0"/>
    <delete id="-140908000#1"/>
    <delete id="-140908001#0"/>
    <delete id="-140908001#1"/>
    <delete id="-141189097"/>
    <delete id="-141189100#0"/>
    <delete id="-141189100#1"/>
    <delete id="-141189102"/>
    <delete id="-141189103#0"/>
    <delete id="-141189103#1"/>
    <delete id="-141191239#0"/>
    <delete id="-141191239#1"/>
    <delete id="-141191240#0"/>
    <delete id="-141191240#1"/>
    <delete id="-141191240#2"/>
    <delete id="-141191240#3"/>
    <delete id="-141191241"/>
    <delete id="-143315075#0"/>
    <delete id="-143315078#0"/>
    <delete id="-143315078#1"/>
    <delete id="-143315082#0"/>
    <delete id="-143315082#1"/>
    <delete id="-143315082#2"/>
    <delete id="-143315085#0"/>
    <delete id="-143315085#1"/>
    <delete id="-143315092"/>
    <delete id="-143315101"/>
    <delete id="-143323750"/>
    <delete id="-143323751#0"/>
    <delete id="-143323751#1"/>
    <delete id="-143323751#2"/>
    <delete id="-143323751#3"/>
    <delete id="-143323754"/>
    <delete id="-143323756"/>
    <delete id="-143323757"/>
    <delete id="-143817797#0"/>
    <delete id="-143817797#1"/>
    <delete id="-143817797#2"/>
    <delete id="-143817797#4"/>
    <delete id="-143817797#5"/>
    <delete id="-143817797#6"/>
    <delete id="-143817797#7"/>
    <delete id="-143817797#8"/>
    <delete id="-143817799"/>
    <delete id="-143817800"/>
    <delete id="-143819111#0"/>
    <delete id="-143819111#1"/>
    <delete id="-143819121#0"/>
    <delete id="-143819121#1"/>
    <delete id="-143819121#2"/>
    <delete id="-143819121#3"/>
    <delete id="-144119346"/>
    <delete id="-144784599#0"/>
    <delete id="-144784599#1"/>
    <delete id="-144784599#2"/>
    <delete id="-144784599#3"/>
    <delete id="-144784601"/>
    <delete id="-145745873#0"/>
    <delete id="-145745873#1"/>
    <delete id="-145745873#2"/>
    <delete id="-145745873#3"/>
    <delete id="-145745875"/>
    <delete id="-145745877#0"/>
    <delete id="-145745877#1"/>
    <delete id="-145745879#0"/>
    <delete id="-145745882"/>
    <delete id="-145755539#0"/>
    <delete id="-145755541"/>
    <delete id="-145755542"/>
    <delete id="-145755543"/>
    <delete id="-145755544#0"/>
    <delete id="-145755544#1"/>
    <delete id="-145763715#0"/>
    <delete id="-145763715#1"/>
    <delete id="-145987579#0"/>
    <delete id="-145987579#1"/>
    <delete id="-146203660#0"/>
    <delete id="-146203660#1"/>
    <delete id="-146203667"/>
    <delete id="-146203669"/>
    <delete id="-146203671#0"/>
    <delete id="-146203671#1"/>
    <delete id="-146203672#0"/>
    <delete id="-146203672#1"/>
    <delete id="-146203672#2"/>
    <delete id="-146964802"/>
    <delete id="-148238402#0"/>
    <delete id="-148238402#1"/>
    <delete id="-148238402#2"/>
    <delete id="-148238402#3"/>
    <delete id="-149735484#0"/>
    <delete id="-149735484#1"/>
    <delete id="-151197939"/>
    <delete id="-151585859#1"/>
    <delete id="-151585859#2"/>
    <delete id="-151585859#4"/>
    <delete id="-151585859#5"/>
    <delete id="-151585859#6"/>
    <delete id="-151585859#7"/>
    <delete id="-151585860#1"/>
    <delete id="-151585860#3"/>
    <delete id="-151585860#4"/>
    <delete id="-151585862#0"/>
    <delete id="-151585862#1"/>
    <delete id="-151585862#2"/>
    <delete id="-151590004#0"/>
    <delete id="-151590004#1"/>
    <delete id="-151590004#2"/>
    <delete id="-151590005#0"/>
    <delete id="-151590005#1"/>
    <delete id="-151590005#2"/>
    <delete id="-151590005#3"/>
    <delete id="-151590005#4"/>
    <delete id="-151590005#5"/>
    <delete id="-151590005#6"/>
    <delete id="-151590006"/>
    <delete id="-151590008#0"/>
    <delete id="-151590008#1"/>
    <delete id="-151590008#2"/>
    <delete id="-151592238#0"/>
    <delete id="-151592238#1"/>
    <delete id="-151592248#0"/>
    <delete id="-151592248#1"/>
    <delete id="-151592248#2"/>
    <delete id="-151592248#3"/>
    <delete id="-151592248#4"/>
    <delete id="-151592248#5"/>
    <delete id="-151592248#6"/>
    <delete id="-151592248#7"/>
    <delete id="-151592248#8"/>
    <delete id="-151592248#9"/>
    <delete id="-151592250#0"/>
    <delete id="-151592250#1"/>
    <delete id="-151592252"/>
    <delete id="-151592255#0"/>
    <delete id="-151592255#1"/>
    <delete id="-151592928"/>
    <delete id="-151592929"/>
    <delete id="-151592930#0"/>
    <delete id="-151592930#1"/>
    <delete id="-151592931#0"/>
    <delete id="-151592931#1"/>
    <delete id="-151592933#0"/>
    <delete id="-151592933#1"/>
    <delete id="-151592934#0"/>
    <delete id="-151592934#1"/>
    <delete id="-151614067"/>
    <delete id="-151614786#0"/>
    <delete id="-151702773"/>
    <delete id="-151704096"/>
    <delete id="-151704098"/>
    <delete id="-151704099#0"/>
    <delete id="-151704099#1"/>
    <delete id="-151704099#3"/>
    <delete id="-151707574"/>
    <delete id="-151707575"/>
    <delete id="-151707576"/>
    <delete id="-151708450"/>
    <delete id="-151708451"/>
    <delete id="-151708456#0"/>
    <delete id="-151708456#1"/>
    <delete id="-151708458#0"/>
    <delete id="-151708458#1"/>
    <delete id="-151708458#2"/>
    <delete id="-153778298#0"/>
    <delete id="-153778298#1"/>
    <delete id="-153977624#0"/>
    <delete id="-153977624#1"/>
    <delete id="-153977629"/>
    <delete id="-154001132"/>
    <delete id="-154001911"/>
    <delete id="-154234607"/>
    <delete id="-154235342#1"/>
    <delete id="-155267323"/>
    <delete id="-155267325#0"/>
    <delete id="-155267325#1"/>
    <delete id="-155267326"/>
    <delete id="-155269596"/>
    <delete id="-155269597"/>
    <delete id="-155269602"/>
    <delete id="-155269604"/>
    <delete id="-155269606"/>
    <delete id="-155296380#0"/>
    <delete id="-155296380#1"/>
    <delete id="-155297010"/>
    <delete id="-155297398"/>
    <delete id="-155297401"/>
    <delete id="-155297402#0"/>
    <delete id="-155297402#1"/>
    <delete id="-155298701"/>
    <delete id="-155298708"/>
    <delete id="-155316858"/>
    <delete id="-155316860#0"/>
    <delete id="-155316860#1"/>
    <delete id="-155316860#2"/>
    <delete id="-155316861#0"/>
    <delete id="-155316861#1"/>
    <delete id="-155317897"/>
    <delete id="-155317898"/>
    <delete id="-157124727"/>
    <delete id="-157124750"/>
    <delete id="-157244815#0"/>
    <delete id="-157244815#1"/>
    <delete id="-157244815#2"/>
    <delete id="-157244815#3"/>
    <delete id="-157244818#0"/>
    <delete id="-157244818#3"/>
    <delete id="-157246385#1"/>
    <delete id="-157253917#0"/>
    <delete id="-157253917#1"/>
    <delete id="-157253917#2"/>
    <delete id="-157253918#1"/>
    <delete id="-157253918#2"/>
    <delete id="-157253918#3"/>
    <delete id="-157253918#4"/>
    <delete id="-157253918#5"/>
    <delete id="-157253920#0"/>
    <delete id="-157253920#1"/>
    <delete id="-157253920#2"/>
    <delete id="-157253921"/>
    <delete id="-157394894"/>
    <delete id="-157403653#0"/>
    <delete id="-157403653#1"/>
    <delete id="-157403654"/>
    <delete id="-157403655"/>
    <delete id="-157403657"/>
    <delete id="-157403658"/>
    <delete id="-157403659#0"/>
    <delete id="-157403659#1"/>
    <delete id="-157535157#0"/>
    <delete id="-157535157#1"/>
    <delete id="-157535157#2"/>
    <delete id="-157535157#3"/>
    <delete id="-157535157#4"/>
    <delete id="-157535157#5"/>
    <delete id="-157535160"/>
    <delete id="-157535167"/>
    <delete id="-157535172"/>
    <delete id="-157535178#0"/>
    <delete id="-157535178#1"/>
    <delete id="-157535184"/>
    <delete id="-157537321#0"/>
    <delete id="-157537321#1"/>
    <delete id="-157537321#2"/>
    <delete id="-157537322#0"/>
    <delete id="-157537322#1"/>
    <delete id="-157537322#2"/>
    <delete id="-157539096#1"/>
    <delete id="-157539096#2"/>
    <delete id="-157539099#0"/>
    <delete id="-157539099#1"/>
    <delete id="-157539099#2"/>
    <delete id="-157539099#3"/>
    <delete id="-157539099#4"/>
    <delete id="-157539099#5"/>
    <delete id="-157539101#0"/>
    <delete id="-157539101#1"/>
    <delete id="-157539102#0"/>
    <delete id="-158179941#0"/>
    <delete id="-158586378"/>
    <delete id="-158590867"/>
    <delete id="-158878660#0"/>
    <delete id="-158878660#1"/>
    <delete id="-159039372#0"/>
    <delete id="-159039372#1"/>
    <delete id="-159039372#2"/>
    <delete id="-159190098"/>
    <delete id="-159190117#0"/>
    <delete id="-159190117#1"/>
    <delete id="-159190117#3"/>
    <delete id="-159190117#5"/>
    <delete id="-159190117#6"/>
    <delete id="-159190117#7"/>
    <delete id="-159190122#0"/>
    <delete id="-159190122#2"/>
    <delete id="-159296361"/>
    <delete id="-159474125"/>
    <delete id="-159511088"/>
    <delete id="-159511089"/>
    <delete id="-159511090#0"/>
    <delete id="-159511090#1"/>
    <delete id="-159512293"/>
    <delete id="-159818144#1"/>
    <delete id="-159818144#2"/>
    <delete id="-159818666#0"/>
    <delete id="-159818666#1"/>
    <delete id="-159818666#10"/>
    <delete id="-159818666#12"/>
    <delete id="-159818666#13"/>
    <delete id="-159818666#3"/>
    <delete id="-159818666#4"/>
    <delete id="-159818666#5"/>
    <delete id="-159818666#7"/>
    <delete id="-159818666#8"/>
    <delete id="-159818666#9"/>
    <delete id="-159819713"/>
    <delete id="-159819714"/>
    <delete id="-159819715"/>
    <delete id="-159819716"/>
    <delete id="-159819717#0"/>
    <delete id="-159819717#1"/>
    <delete id="-159819717#2"/>
    <delete id="-159819717#3"/>
    <delete id="-159819717#4"/>
    <delete id="-159819718"/>
    <delete id="-159820358#0"/>
    <delete id="-159820358#2"/>
    <delete id="-159820358#3"/>
    <delete id="-159820358#4"/>
    <delete id="-159820358#5"/>
    <delete id="-159820786#0"/>
    <delete id="-159820786#1"/>
    <delete id="-159820786#2"/>
    <delete id="-159850124#0"/>
    <delete id="-159850124#2"/>
    <delete id="-159850124#3"/>
    <delete id="-159850124#5"/>
    <delete id="-159851643#0"/>
    <delete id="-159851643#1"/>
    <delete id="-159866405"/>
    <delete id="-159866433"/>
    <delete id="-159866438"/>
    <delete id="-159866460"/>
    <delete id="-159866462#0"/>
    <delete id="-159866462#1"/>
    <delete id="-159866462#2"/>
    <delete id="-159866462#3"/>
    <delete id="-159866462#4"/>
    <delete id="-159866462#5"/>
    <delete id="-159866462#6"/>
    <delete id="-159866462#7"/>
    <delete id="-159949969#0"/>
    <delete id="-159949969#1"/>
    <delete id="-159949969#2"/>
    <delete id="-159949969#3"/>
    <delete id="-159950182#0"/>
    <delete id="-159950182#1"/>
    <delete id="-159950717#0"/>
    <delete id="-159950717#1"/>
    <delete id="-159954689#0"/>
    <delete id="-159954689#1"/>
    <delete id="-159954689#2"/>
    <delete id="-159954694"/>
    <delete id="-159954695#0"/>
    <delete id="-159954695#1"/>
    <delete id="-159954695#2"/>
    <delete id="-159954695#3"/>
    <delete id="-159954695#4"/>
    <delete id="-159954698"/>
    <delete id="-159954700"/>
    <delete id="-159954701"/>
    <delete id="-159956782"/>
    <delete id="-159956783"/>
    <delete id="-159956785"/>
    <delete id="-159980917"/>
    <delete id="-159982580"/>
    <delete id="-159984330"/>
    <delete id="-159989038"/>
    <delete id="-160011978#0"/>
    <delete id="-160011978#1"/>
    <delete id="-160011978#2"/>
    <delete id="-160011978#3"/>
    <delete id="-160011978#5"/>
    <delete id="-160012030#0"/>
    <delete id="-160012030#1"/>
    <delete id="-160088789#0"/>
    <delete id="-160088789#1"/>
    <delete id="-160088790"/>
    <delete id="-160091347"/>
    <delete id="-160451000#1"/>
    <delete id="-160451000#2"/>
    <delete id="-160451000#3"/>
    <delete id="-160451000#4"/>
    <delete id="-160451000#5"/>
    <delete id="-160451001#0"/>
    <delete id="-160451001#1"/>
    <delete id="-162004565#0"/>
    <delete id="-162004565#1"/>
    <delete id="-162004565#2"/>
    <delete id="-166716912#0"/>
    <delete id="-166716912#1"/>
    <delete id="-169954312"/>
    <delete id="-171049828"/>
    <delete id="-172009563#0"/>
    <delete id="-172009563#1"/>
    <delete id="-172189511#0"/>
    <delete id="-172189511#1"/>
    <delete id="-172189511#10"/>
    <delete id="-172189511#11"/>
    <delete id="-172189511#12"/>
    <delete id="-172189511#13"/>
    <delete id="-172189511#14"/>
    <delete id="-172189511#15"/>
    <delete id="-172189511#16"/>
    <delete id="-172189511#2"/>
    <delete id="-172189511#3"/>
    <delete id="-172189511#5"/>
    <delete id="-172189511#7"/>
    <delete id="-172189511#8"/>
    <delete id="-172189511#9"/>
    <delete id="-175070740#0"/>
    <delete id="-175070740#1"/>
    <delete id="-175070740#2"/>
    <delete id="-175070742"/>
    <delete id="-175070743#0"/>
    <delete id="-175070743#2"/>
    <delete id="-175070745#0"/>
    <delete id="-175070746#0"/>
    <delete id="-175070747"/>
    <delete id="-175256599#0"/>
    <delete id="-175256599#1"/>
    <delete id="-175256601"/>
    <delete id="-175256603"/>
    <delete id="-175256608#0"/>
    <delete id="-175256608#1"/>
    <delete id="-175256608#2"/>
    <delete id="-175256608#3"/>
    <delete id="-175256608#4"/>
    <delete id="-175256608#5"/>
    <delete id="-175256612"/>